
            

 12 12  0  0  0  0            999 V2000
    1.2822    2.3518    0.0000 O   0  0  0  0  0  0  0  0  0  0  0  0
    0.5678    1.9393    0.0000 C   0  0  0  0  0  0  0  0  0  0  0  0
   -0.1467    2.3518    0.0000 O   0  0  0  0  0  0  0  0  0  0  0  0
    0.5678    1.1143    0.0000 C   0  0  0  0  0  0  0  0  0  0  0  0
    1.2352    0.6294    0.0000 O   0  0  0  0  0  0  0  0  0  0  0  0
    0.9803   -0.1553    0.0000 C   0  0  0  0  0  0  0  0  0  0  0  0
    0.1553   -0.1553    0.0000 N   0  0  0  0  0  0  0  0  0  0  0  0
   -0.0997    0.6294    0.0000 C   0  0  0  0  0  0  0  0  0  0  0  0
   -0.8843    0.8843    0.0000 C   0  0  0  0  0  0  0  0  0  0  0  0
   -1.6689    1.1392    0.0000 F   0  0  0  0  0  0  0  0  0  0  0  0
   -0.6294    1.6689    0.0000 F   0  0  0  0  0  0  0  0  0  0  0  0
   -1.1392    0.0997    0.0000 F   0  0  0  0  0  0  0  0  0  0  0  0
  1  2  1  0  0  0  0
  2  3  2  0  0  0  0
  2  4  1  0  0  0  0
  4  5  1  0  0  0  0
  5  6  1  0  0  0  0
  6  7  2  0  0  0  0
  7  8  1  0  0  0  0
  4  8  2  0  0  0  0
  8  9  1  0  0  0  0
  9 10  1  0  0  0  0
  9 11  1  0  0  0  0
  9 12  1  0  0  0  0
M  END
>  <Catalog ID>
Z1675167401

>  <PlateID>
1198308-R-SPFL-01

>  <Well>
A02

>  <MW (desalted)>
181.069

>  <ClogP>
0.100

>  <HBD>
1

>  <TPSA>
63.330

>  <RotBonds>
2

$$$$

            

 11 11  0  0  0  0            999 V2000
    1.2822    2.3518    0.0000 C   0  0  0  0  0  0  0  0  0  0  0  0
    0.5678    1.9393    0.0000 C   0  0  0  0  0  0  0  0  0  0  0  0
   -0.1467    2.3518    0.0000 C   0  0  0  0  0  0  0  0  0  0  0  0
    0.5678    1.1143    0.0000 N   0  0  0  0  0  0  0  0  0  0  0  0
    1.2352    0.6294    0.0000 C   0  0  0  0  0  0  0  0  0  0  0  0
    0.9803   -0.1553    0.0000 C   0  0  0  0  0  0  0  0  0  0  0  0
    0.1553   -0.1553    0.0000 C   0  0  0  0  0  0  0  0  0  0  0  0
   -0.3297   -0.8227    0.0000 C   0  0  0  0  0  0  0  0  0  0  0  0
   -1.1501   -0.7365    0.0000 C   0  0  0  0  0  0  0  0  0  0  0  0
   -1.6351   -1.4039    0.0000 N   0  0  0  0  0  0  0  0  0  0  0  0
   -0.0997    0.6294    0.0000 N   0  0  0  0  0  0  0  0  0  0  0  0
  1  2  1  0  0  0  0
  2  3  1  0  0  0  0
  2  4  1  0  0  0  0
  4  5  1  0  0  0  0
  5  6  2  0  0  0  0
  6  7  1  0  0  0  0
  7  8  1  0  0  0  0
  8  9  1  0  0  0  0
  9 10  1  0  0  0  0
  7 11  2  0  0  0  0
  4 11  1  0  0  0  0
M  END
>  <Catalog ID>
Z1170387578

>  <PlateID>
1198308-R-SPFL-01

>  <Well>
A03

>  <MW (desalted)>
153.225

>  <ClogP>
0.156

>  <HBD>
1

>  <TPSA>
43.840

>  <RotBonds>
3

$$$$

            

 11 11  0  0  0  0            999 V2000
    0.0000    0.0000    0.0000 Cl  0  0  0  0  0  0  0  0  0  0  0  0
    2.3571    0.4125    0.0000 C   0  0  0  0  0  0  0  0  0  0  0  0
    3.1418    0.6674    0.0000 C   0  0  0  0  0  0  0  0  0  0  0  0
    3.6267   -0.0000    0.0000 C   0  0  0  0  0  0  0  0  0  0  0  0
    3.1418   -0.6674    0.0000 C   0  0  0  0  0  0  0  0  0  0  0  0
    2.3571   -0.4125    0.0000 O   0  0  0  0  0  0  0  0  0  0  0  0
    4.0392    0.7145    0.0000 C   0  0  0  0  0  0  0  0  0  0  0  0
    4.8642    0.7145    0.0000 C   0  0  0  0  0  0  0  0  0  0  0  0
    5.2767   -0.0000    0.0000 C   0  0  0  0  0  0  0  0  0  0  0  0
    4.8642   -0.7145    0.0000 N   0  0  0  0  0  0  0  0  0  0  0  0
    4.0392   -0.7145    0.0000 C   0  0  0  0  0  0  0  0  0  0  0  0
  2  3  1  0  0  0  0
  3  4  1  0  0  0  0
  4  5  1  0  0  0  0
  5  6  1  0  0  0  0
  2  6  1  0  0  0  0
  4  7  1  0  0  0  0
  7  8  1  0  0  0  0
  8  9  1  0  0  0  0
  9 10  1  0  0  0  0
 10 11  1  0  0  0  0
  4 11  1  0  0  0  0
M  END
>  <Catalog ID>
Z1741981151

>  <PlateID>
1198308-R-SPFL-01

>  <Well>
A04

>  <MW (desalted)>
141.211

>  <ClogP>
0.450

>  <HBD>
1

>  <TPSA>
21.260

>  <RotBonds>
0

$$$$

            

 14 15  0  0  0  0            999 V2000
    0.2446    4.5368    0.0000 O   0  0  0  0  0  0  0  0  0  0  0  0
   -0.5597    4.3532    0.0000 C   0  0  0  0  0  0  0  0  0  0  0  0
   -0.7433    3.5489    0.0000 C   0  0  0  0  0  0  0  0  0  0  0  0
   -1.4866    3.1909    0.0000 C   0  0  0  0  0  0  0  0  0  0  0  0
   -2.2299    3.5489    0.0000 N   0  0  0  0  0  0  0  0  0  0  0  0
   -2.4135    4.3532    0.0000 C   0  0  0  0  0  0  0  0  0  0  0  0
   -1.8991    4.9982    0.0000 C   0  0  0  0  0  0  0  0  0  0  0  0
   -1.0741    4.9982    0.0000 N   0  0  0  0  0  0  0  0  0  0  0  0
   -1.4866    2.3659    0.0000 C   0  0  0  0  0  0  0  0  0  0  0  0
   -0.7721    1.9534    0.0000 C   0  0  0  0  0  0  0  0  0  0  0  0
   -0.7721    1.1284    0.0000 C   0  0  0  0  0  0  0  0  0  0  0  0
   -1.4866    0.7159    0.0000 C   0  0  0  0  0  0  0  0  0  0  0  0
   -2.2011    1.1284    0.0000 C   0  0  0  0  0  0  0  0  0  0  0  0
   -2.2011    1.9534    0.0000 C   0  0  0  0  0  0  0  0  0  0  0  0
  1  2  2  0  0  0  0
  2  3  1  0  0  0  0
  3  4  1  0  0  0  0
  4  5  1  0  0  0  0
  5  6  1  0  0  0  0
  6  7  1  0  0  0  0
  7  8  1  0  0  0  0
  2  8  1  0  0  0  0
  4  9  1  0  0  0  0
  9 10  2  0  0  0  0
 10 11  1  0  0  0  0
 11 12  2  0  0  0  0
 12 13  1  0  0  0  0
 13 14  2  0  0  0  0
  9 14  1  0  0  0  0
M  END
>  <Catalog ID>
Z431564442

>  <PlateID>
1198308-R-SPFL-01

>  <Well>
A05

>  <MW (desalted)>
190.242

>  <ClogP>
0.583

>  <HBD>
2

>  <TPSA>
41.130

>  <RotBonds>
1

$$$$

            

 16 16  0  0  0  0            999 V2000
    0.0000    0.0000    0.0000 Cl  0  0  0  0  0  0  0  0  0  0  0  0
    6.0547    1.5400    0.0000 O   0  0  0  0  0  0  0  0  0  0  0  0
    6.0547    0.7150    0.0000 C   0  0  0  0  0  0  0  0  0  0  0  0
    6.7692    0.3025    0.0000 C   0  0  0  0  0  0  0  0  0  0  0  0
    6.7692   -0.5225    0.0000 C   0  0  0  0  0  0  0  0  0  0  0  0
    6.0547   -0.9350    0.0000 C   0  0  0  0  0  0  0  0  0  0  0  0
    5.3402   -0.5225    0.0000 N   0  0  0  0  0  0  0  0  0  0  0  0
    4.6257   -0.9350    0.0000 C   0  0  0  0  0  0  0  0  0  0  0  0
    3.9113   -0.5225    0.0000 C   0  0  0  0  0  0  0  0  0  0  0  0
    3.1968   -0.9350    0.0000 C   0  0  0  0  0  0  0  0  0  0  0  0
    2.4823   -0.5225    0.0000 C   0  0  0  0  0  0  0  0  0  0  0  0
    2.4823    0.3025    0.0000 C   0  0  0  0  0  0  0  0  0  0  0  0
    1.7679    0.7150    0.0000 F   0  0  0  0  0  0  0  0  0  0  0  0
    3.1968    0.7150    0.0000 C   0  0  0  0  0  0  0  0  0  0  0  0
    3.9113    0.3025    0.0000 C   0  0  0  0  0  0  0  0  0  0  0  0
    5.3402    0.3025    0.0000 C   0  0  0  0  0  0  0  0  0  0  0  0
  2  3  1  0  0  0  0
  3  4  1  0  0  0  0
  4  5  1  0  0  0  0
  5  6  1  0  0  0  0
  6  7  1  0  0  0  0
  7  8  1  0  0  0  0
  8  9  1  0  0  0  0
  9 10  2  0  0  0  0
 10 11  1  0  0  0  0
 11 12  2  0  0  0  0
 12 13  1  0  0  0  0
 12 14  1  0  0  0  0
 14 15  2  0  0  0  0
  9 15  1  0  0  0  0
  7 16  1  0  0  0  0
  3 16  1  0  0  0  0
M  END
>  <Catalog ID>
Z1717695509

>  <PlateID>
1198308-R-SPFL-01

>  <Well>
A06

>  <MW (desalted)>
209.260

>  <ClogP>
2.058

>  <HBD>
1

>  <TPSA>
23.470

>  <RotBonds>
2

$$$$

            

 12 12  0  0  0  0            999 V2000
    1.2822    2.3518    0.0000 O   0  0  0  0  0  0  0  0  0  0  0  0
    0.5678    1.9393    0.0000 C   0  0  0  0  0  0  0  0  0  0  0  0
    0.5678    1.1143    0.0000 C   0  0  0  0  0  0  0  0  0  0  0  0
    1.2352    0.6294    0.0000 N   0  0  0  0  0  0  0  0  0  0  0  0
    0.9803   -0.1553    0.0000 C   0  0  0  0  0  0  0  0  0  0  0  0
    0.1553   -0.1553    0.0000 C   0  0  0  0  0  0  0  0  0  0  0  0
   -0.0997    0.6294    0.0000 N   0  0  0  0  0  0  0  0  0  0  0  0
   -0.8843    0.8843    0.0000 C   0  0  0  0  0  0  0  0  0  0  0  0
   -1.4974    0.3323    0.0000 C   0  0  0  0  0  0  0  0  0  0  0  0
   -2.1105   -0.2198    0.0000 F   0  0  0  0  0  0  0  0  0  0  0  0
   -2.0494    0.9454    0.0000 F   0  0  0  0  0  0  0  0  0  0  0  0
   -0.9454   -0.2808    0.0000 F   0  0  0  0  0  0  0  0  0  0  0  0
  1  2  1  0  0  0  0
  2  3  1  0  0  0  0
  3  4  2  0  0  0  0
  4  5  1  0  0  0  0
  5  6  2  0  0  0  0
  6  7  1  0  0  0  0
  3  7  1  0  0  0  0
  7  8  1  0  0  0  0
  8  9  1  0  0  0  0
  9 10  1  0  0  0  0
  9 11  1  0  0  0  0
  9 12  1  0  0  0  0
M  END
>  <Catalog ID>
Z1065610130

>  <PlateID>
1198308-R-SPFL-01

>  <Well>
A07

>  <MW (desalted)>
180.128

>  <ClogP>
-0.758

>  <HBD>
1

>  <TPSA>
38.050

>  <RotBonds>
3

$$$$

            

 13 14  0  0  0  0            999 V2000
   -0.1781   -3.1062    0.0000 C   0  0  0  0  0  0  0  0  0  0  0  0
    0.0768   -2.3215    0.0000 C   0  0  0  0  0  0  0  0  0  0  0  0
   -0.4752   -1.7084    0.0000 C   0  0  0  0  0  0  0  0  0  0  0  0
    0.8838   -2.1500    0.0000 C   0  0  0  0  0  0  0  0  0  0  0  0
    1.1387   -1.3654    0.0000 C   0  0  0  0  0  0  0  0  0  0  0  0
    0.6538   -0.6979    0.0000 N   0  0  0  0  0  0  0  0  0  0  0  0
    1.1387   -0.0305    0.0000 N   0  0  0  0  0  0  0  0  0  0  0  0
    1.9233   -0.2854    0.0000 C   0  0  0  0  0  0  0  0  0  0  0  0
    2.6378    0.1271    0.0000 C   0  0  0  0  0  0  0  0  0  0  0  0
    3.3523   -0.2854    0.0000 N   0  0  0  0  0  0  0  0  0  0  0  0
    3.3523   -1.1104    0.0000 C   0  0  0  0  0  0  0  0  0  0  0  0
    2.6378   -1.5229    0.0000 C   0  0  0  0  0  0  0  0  0  0  0  0
    1.9233   -1.1104    0.0000 N   0  0  0  0  0  0  0  0  0  0  0  0
  1  2  1  0  0  0  0
  2  3  1  0  0  0  0
  2  4  1  0  0  0  0
  4  5  1  0  0  0  0
  5  6  2  0  0  0  0
  6  7  1  0  0  0  0
  7  8  2  0  0  0  0
  8  9  1  0  0  0  0
  9 10  1  0  0  0  0
 10 11  1  0  0  0  0
 11 12  1  0  0  0  0
 12 13  1  0  0  0  0
  5 13  1  0  0  0  0
  8 13  1  0  0  0  0
M  END
>  <Catalog ID>
Z992916592

>  <PlateID>
1198308-R-SPFL-01

>  <Well>
A08

>  <MW (desalted)>
180.250

>  <ClogP>
-0.122

>  <HBD>
1

>  <TPSA>
42.740

>  <RotBonds>
2

$$$$

            

 16 18  0  0  0  0            999 V2000
   -0.1712   -0.6979    0.0000 C   0  0  0  0  0  0  0  0  0  0  0  0
    0.6538   -0.6979    0.0000 C   0  0  0  0  0  0  0  0  0  0  0  0
    1.1387   -0.0305    0.0000 N   0  0  0  0  0  0  0  0  0  0  0  0
    1.9233   -0.2854    0.0000 C   0  0  0  0  0  0  0  0  0  0  0  0
    2.6378    0.1271    0.0000 C   0  0  0  0  0  0  0  0  0  0  0  0
    3.3523   -0.2854    0.0000 C   0  0  0  0  0  0  0  0  0  0  0  0
    3.3523   -1.1104    0.0000 C   0  0  0  0  0  0  0  0  0  0  0  0
    2.6378   -1.5229    0.0000 C   0  0  0  0  0  0  0  0  0  0  0  0
    1.9233   -1.1104    0.0000 C   0  0  0  0  0  0  0  0  0  0  0  0
    1.1387   -1.3654    0.0000 N   0  0  0  0  0  0  0  0  0  0  0  0
    0.8838   -2.1500    0.0000 C   0  0  0  0  0  0  0  0  0  0  0  0
    1.4358   -2.7631    0.0000 C   0  0  0  0  0  0  0  0  0  0  0  0
    1.1809   -3.5477    0.0000 C   0  0  0  0  0  0  0  0  0  0  0  0
    0.3739   -3.7192    0.0000 N   0  0  0  0  0  0  0  0  0  0  0  0
   -0.1781   -3.1062    0.0000 C   0  0  0  0  0  0  0  0  0  0  0  0
    0.0768   -2.3215    0.0000 C   0  0  0  0  0  0  0  0  0  0  0  0
  1  2  1  0  0  0  0
  2  3  2  0  0  0  0
  3  4  1  0  0  0  0
  4  5  2  0  0  0  0
  5  6  1  0  0  0  0
  6  7  2  0  0  0  0
  7  8  1  0  0  0  0
  8  9  2  0  0  0  0
  4  9  1  0  0  0  0
  9 10  1  0  0  0  0
  2 10  1  0  0  0  0
 10 11  1  0  0  0  0
 11 12  1  0  0  0  0
 12 13  1  0  0  0  0
 13 14  1  0  0  0  0
 14 15  1  0  0  0  0
 15 16  1  0  0  0  0
 11 16  1  0  0  0  0
M  END
>  <Catalog ID>
Z839575888

>  <PlateID>
1198308-R-SPFL-01

>  <Well>
A09

>  <MW (desalted)>
215.294

>  <ClogP>
1.462

>  <HBD>
1

>  <TPSA>
29.850

>  <RotBonds>
1

$$$$

            

 10 10  0  0  0  0            999 V2000
    0.5678    1.9393    0.0000 C   0  0  0  0  0  0  0  0  0  0  0  0
    0.5678    1.1143    0.0000 C   0  0  0  0  0  0  0  0  0  0  0  0
    1.2352    0.6294    0.0000 C   0  0  0  0  0  0  0  0  0  0  0  0
    0.9803   -0.1553    0.0000 C   0  0  0  0  0  0  0  0  0  0  0  0
    1.4652   -0.8227    0.0000 C   0  0  0  0  0  0  0  0  0  0  0  0
    0.1553   -0.1553    0.0000 N   0  0  0  0  0  0  0  0  0  0  0  0
   -0.3297   -0.8227    0.0000 C   0  0  0  0  0  0  0  0  0  0  0  0
   -1.1501   -0.7365    0.0000 C   0  0  0  0  0  0  0  0  0  0  0  0
   -1.6351   -1.4039    0.0000 O   0  0  0  0  0  0  0  0  0  0  0  0
   -0.0997    0.6294    0.0000 N   0  0  0  0  0  0  0  0  0  0  0  0
  1  2  1  0  0  0  0
  2  3  1  0  0  0  0
  3  4  2  0  0  0  0
  4  5  1  0  0  0  0
  4  6  1  0  0  0  0
  6  7  1  0  0  0  0
  7  8  1  0  0  0  0
  8  9  1  0  0  0  0
  6 10  1  0  0  0  0
  2 10  2  0  0  0  0
M  END
>  <Catalog ID>
Z64780602

>  <PlateID>
1198308-R-SPFL-01

>  <Well>
A10

>  <MW (desalted)>
140.183

>  <ClogP>
0.103

>  <HBD>
1

>  <TPSA>
38.050

>  <RotBonds>
2

$$$$

            

 14 15  0  0  0  0            999 V2000
    2.1434   -0.4125    0.0000 N   0  0  0  0  0  0  0  0  0  0  0  0
    2.1434   -1.2375    0.0000 C   0  0  0  0  0  0  0  0  0  0  0  0
    2.8579   -1.6500    0.0000 C   0  0  0  0  0  0  0  0  0  0  0  0
    2.8579   -2.4750    0.0000 C   0  0  0  0  0  0  0  0  0  0  0  0
    2.1434   -2.8875    0.0000 N   0  0  0  0  0  0  0  0  0  0  0  0
    2.1434   -3.7125    0.0000 C   0  0  0  0  0  0  0  0  0  0  0  0
    1.4289   -4.1250    0.0000 C   0  0  0  0  0  0  0  0  0  0  0  0
    1.4289   -4.9500    0.0000 C   0  0  0  0  0  0  0  0  0  0  0  0
    0.7145   -5.3625    0.0000 C   0  0  0  0  0  0  0  0  0  0  0  0
   -0.0000   -4.9500    0.0000 C   0  0  0  0  0  0  0  0  0  0  0  0
    0.0000   -4.1250    0.0000 C   0  0  0  0  0  0  0  0  0  0  0  0
    0.7145   -3.7125    0.0000 C   0  0  0  0  0  0  0  0  0  0  0  0
    1.4289   -2.4750    0.0000 C   0  0  0  0  0  0  0  0  0  0  0  0
    1.4289   -1.6500    0.0000 C   0  0  0  0  0  0  0  0  0  0  0  0
  1  2  1  0  0  0  0
  2  3  1  0  0  0  0
  3  4  1  0  0  0  0
  4  5  1  0  0  0  0
  5  6  1  0  0  0  0
  6  7  1  0  0  0  0
  7  8  2  0  0  0  0
  8  9  1  0  0  0  0
  9 10  2  0  0  0  0
 10 11  1  0  0  0  0
 11 12  2  0  0  0  0
  7 12  1  0  0  0  0
  5 13  1  0  0  0  0
 13 14  1  0  0  0  0
  2 14  1  0  0  0  0
M  END
>  <Catalog ID>
Z104477026

>  <PlateID>
1198308-R-SPFL-01

>  <Well>
A11

>  <MW (desalted)>
190.285

>  <ClogP>
1.182

>  <HBD>
1

>  <TPSA>
29.260

>  <RotBonds>
2

$$$$

            

 10 11  0  0  0  0            999 V2000
    0.8838   -2.1500    0.0000 N   0  0  0  0  0  0  0  0  0  0  0  0
    1.1387   -1.3654    0.0000 C   0  0  0  0  0  0  0  0  0  0  0  0
    0.6538   -0.6979    0.0000 S   0  0  0  0  0  0  0  0  0  0  0  0
    1.1387   -0.0305    0.0000 N   0  0  0  0  0  0  0  0  0  0  0  0
    1.9233   -0.2854    0.0000 C   0  0  0  0  0  0  0  0  0  0  0  0
    2.6378    0.1271    0.0000 N   0  0  0  0  0  0  0  0  0  0  0  0
    3.3523   -0.2854    0.0000 C   0  0  0  0  0  0  0  0  0  0  0  0
    3.3523   -1.1104    0.0000 C   0  0  0  0  0  0  0  0  0  0  0  0
    2.6378   -1.5229    0.0000 C   0  0  0  0  0  0  0  0  0  0  0  0
    1.9233   -1.1104    0.0000 C   0  0  0  0  0  0  0  0  0  0  0  0
  1  2  1  0  0  0  0
  2  3  1  0  0  0  0
  3  4  1  0  0  0  0
  4  5  2  0  0  0  0
  5  6  1  0  0  0  0
  6  7  2  0  0  0  0
  7  8  1  0  0  0  0
  8  9  2  0  0  0  0
  9 10  1  0  0  0  0
  2 10  2  0  0  0  0
  5 10  1  0  0  0  0
M  END
>  <Catalog ID>
Z1198182071

>  <PlateID>
1198308-R-SPFL-01

>  <Well>
B02

>  <MW (desalted)>
151.189

>  <ClogP>
0.635

>  <HBD>
1

>  <TPSA>
51.800

>  <RotBonds>
0

$$$$

            

 12 12  0  0  0  0            999 V2000
    0.5678    1.9393    0.0000 N   0  0  0  0  0  0  0  0  0  0  0  0
    0.5678    1.1143    0.0000 C   0  0  0  0  0  0  0  0  0  0  0  0
    1.2352    0.6294    0.0000 C   0  0  0  0  0  0  0  0  0  0  0  0
    0.9803   -0.1553    0.0000 C   0  0  0  0  0  0  0  0  0  0  0  0
    0.1553   -0.1553    0.0000 N   0  0  0  0  0  0  0  0  0  0  0  0
   -0.3297   -0.8227    0.0000 C   0  0  0  0  0  0  0  0  0  0  0  0
   -1.1501   -0.7365    0.0000 C   0  0  0  0  0  0  0  0  0  0  0  0
   -1.6351   -1.4039    0.0000 C   0  0  0  0  0  0  0  0  0  0  0  0
   -2.1200   -2.0713    0.0000 F   0  0  0  0  0  0  0  0  0  0  0  0
   -2.3025   -0.9190    0.0000 F   0  0  0  0  0  0  0  0  0  0  0  0
   -0.9676   -1.8888    0.0000 F   0  0  0  0  0  0  0  0  0  0  0  0
   -0.0997    0.6294    0.0000 N   0  0  0  0  0  0  0  0  0  0  0  0
  1  2  1  0  0  0  0
  2  3  1  0  0  0  0
  3  4  2  0  0  0  0
  4  5  1  0  0  0  0
  5  6  1  0  0  0  0
  6  7  1  0  0  0  0
  7  8  1  0  0  0  0
  8  9  1  0  0  0  0
  8 10  1  0  0  0  0
  8 11  1  0  0  0  0
  5 12  1  0  0  0  0
  2 12  2  0  0  0  0
M  END
>  <Catalog ID>
Z1235984163

>  <PlateID>
1198308-R-SPFL-01

>  <Well>
B03

>  <MW (desalted)>
179.143

>  <ClogP>
0.244

>  <HBD>
1

>  <TPSA>
43.840

>  <RotBonds>
3

$$$$

            

 14 14  0  0  0  0            999 V2000
    0.0000    0.0000    0.0000 Cl  0  0  0  0  0  0  0  0  0  0  0  0
    1.8857   -0.1687    0.0000 O   0  0  0  0  0  0  0  0  0  0  0  0
    2.6826    0.0449    0.0000 C   0  0  0  0  0  0  0  0  0  0  0  0
    2.8961    0.8418    0.0000 O   0  0  0  0  0  0  0  0  0  0  0  0
    3.2660   -0.5385    0.0000 C   0  0  0  0  0  0  0  0  0  0  0  0
    3.8493   -1.1219    0.0000 C   0  0  0  0  0  0  0  0  0  0  0  0
    3.2660   -1.7052    0.0000 C   0  0  0  0  0  0  0  0  0  0  0  0
    2.6826   -1.1219    0.0000 C   0  0  0  0  0  0  0  0  0  0  0  0
    3.8493    0.0449    0.0000 C   0  0  0  0  0  0  0  0  0  0  0  0
    3.6358    0.8418    0.0000 C   0  0  0  0  0  0  0  0  0  0  0  0
    4.2192    1.4251    0.0000 C   0  0  0  0  0  0  0  0  0  0  0  0
    5.0161    1.2116    0.0000 C   0  0  0  0  0  0  0  0  0  0  0  0
    5.2296    0.4147    0.0000 N   0  0  0  0  0  0  0  0  0  0  0  0
    4.6462   -0.1687    0.0000 C   0  0  0  0  0  0  0  0  0  0  0  0
  2  3  1  0  0  0  0
  3  4  2  0  0  0  0
  3  5  1  0  0  0  0
  5  6  1  0  0  0  0
  6  7  1  0  0  0  0
  7  8  1  0  0  0  0
  5  8  1  0  0  0  0
  5  9  1  0  0  0  0
  9 10  2  0  0  0  0
 10 11  1  0  0  0  0
 11 12  2  0  0  0  0
 12 13  1  0  0  0  0
 13 14  2  0  0  0  0
  9 14  1  0  0  0  0
M  END
>  <Catalog ID>
Z2432787947

>  <PlateID>
1198308-R-SPFL-01

>  <Well>
B04

>  <MW (desalted)>
177.200

>  <ClogP>
0.820

>  <HBD>
1

>  <TPSA>
50.190

>  <RotBonds>
2

$$$$

            

 12 13  0  0  0  0            999 V2000
    0.0768   -2.3215    0.0000 O   0  0  0  0  0  0  0  0  0  0  0  0
    0.8838   -2.1500    0.0000 C   0  0  0  0  0  0  0  0  0  0  0  0
    1.4358   -2.7631    0.0000 O   0  0  0  0  0  0  0  0  0  0  0  0
    1.1387   -1.3654    0.0000 C   0  0  0  0  0  0  0  0  0  0  0  0
    0.6538   -0.6979    0.0000 C   0  0  0  0  0  0  0  0  0  0  0  0
    1.1387   -0.0305    0.0000 C   0  0  0  0  0  0  0  0  0  0  0  0
    1.9233   -0.2854    0.0000 N   0  0  0  0  0  0  0  0  0  0  0  0
    2.6378    0.1271    0.0000 C   0  0  0  0  0  0  0  0  0  0  0  0
    3.3523   -0.2854    0.0000 C   0  0  0  0  0  0  0  0  0  0  0  0
    3.3523   -1.1104    0.0000 C   0  0  0  0  0  0  0  0  0  0  0  0
    2.6378   -1.5229    0.0000 C   0  0  0  0  0  0  0  0  0  0  0  0
    1.9233   -1.1104    0.0000 C   0  0  0  0  0  0  0  0  0  0  0  0
  1  2  1  0  0  0  0
  2  3  2  0  0  0  0
  2  4  1  0  0  0  0
  4  5  1  0  0  0  0
  5  6  2  0  0  0  0
  6  7  1  0  0  0  0
  7  8  1  0  0  0  0
  8  9  1  0  0  0  0
  9 10  1  0  0  0  0
 10 11  1  0  0  0  0
 11 12  1  0  0  0  0
  4 12  2  0  0  0  0
  7 12  1  0  0  0  0
M  END
>  <Catalog ID>
Z1255417123

>  <PlateID>
1198308-R-SPFL-01

>  <Well>
B05

>  <MW (desalted)>
165.189

>  <ClogP>
2.199

>  <HBD>
1

>  <TPSA>
42.230

>  <RotBonds>
1

$$$$

            

 10 10  0  0  0  0            999 V2000
    1.2822    3.1768    0.0000 C   0  0  0  0  0  0  0  0  0  0  0  0
    1.2822    2.3518    0.0000 C   0  0  0  0  0  0  0  0  0  0  0  0
    1.9967    1.9393    0.0000 C   0  0  0  0  0  0  0  0  0  0  0  0
    0.5678    1.9393    0.0000 C   0  0  0  0  0  0  0  0  0  0  0  0
    0.5678    1.1143    0.0000 C   0  0  0  0  0  0  0  0  0  0  0  0
    1.2352    0.6294    0.0000 C   0  0  0  0  0  0  0  0  0  0  0  0
    0.9803   -0.1553    0.0000 N   0  0  0  0  0  0  0  0  0  0  0  0
    0.1553   -0.1553    0.0000 C   0  0  0  0  0  0  0  0  0  0  0  0
   -0.3297   -0.8227    0.0000 O   0  0  0  0  0  0  0  0  0  0  0  0
   -0.0997    0.6294    0.0000 C   0  0  0  0  0  0  0  0  0  0  0  0
  1  2  1  0  0  0  0
  2  3  1  0  0  0  0
  2  4  1  0  0  0  0
  4  5  1  0  0  0  0
  5  6  1  0  0  0  0
  6  7  1  0  0  0  0
  7  8  1  0  0  0  0
  8  9  2  0  0  0  0
  8 10  1  0  0  0  0
  5 10  1  0  0  0  0
M  END
>  <Catalog ID>
Z1198235319

>  <PlateID>
1198308-R-SPFL-01

>  <Well>
B06

>  <MW (desalted)>
141.211

>  <ClogP>
1.003

>  <HBD>
1

>  <TPSA>
29.100

>  <RotBonds>
2

$$$$

            

 15 16  0  0  0  0            999 V2000
   -0.0000    7.1786    0.0000 C   0  0  0  0  0  0  0  0  0  0  0  0
    0.7145    6.7661    0.0000 O   0  0  0  0  0  0  0  0  0  0  0  0
    0.7145    5.9411    0.0000 C   0  0  0  0  0  0  0  0  0  0  0  0
    1.4289    5.5286    0.0000 C   0  0  0  0  0  0  0  0  0  0  0  0
    1.4289    4.7036    0.0000 C   0  0  0  0  0  0  0  0  0  0  0  0
    0.7145    4.2911    0.0000 C   0  0  0  0  0  0  0  0  0  0  0  0
    0.0000    4.7036    0.0000 C   0  0  0  0  0  0  0  0  0  0  0  0
    0.0000    5.5286    0.0000 C   0  0  0  0  0  0  0  0  0  0  0  0
    0.7145    3.4661    0.0000 C   0  0  0  0  0  0  0  0  0  0  0  0
    1.3819    2.9812    0.0000 N   0  0  0  0  0  0  0  0  0  0  0  0
    1.1270    2.1965    0.0000 C   0  0  0  0  0  0  0  0  0  0  0  0
    1.6119    1.5291    0.0000 C   0  0  0  0  0  0  0  0  0  0  0  0
    2.4324    1.6153    0.0000 O   0  0  0  0  0  0  0  0  0  0  0  0
    0.3020    2.1965    0.0000 C   0  0  0  0  0  0  0  0  0  0  0  0
    0.0470    2.9812    0.0000 S   0  0  0  0  0  0  0  0  0  0  0  0
  1  2  1  0  0  0  0
  2  3  1  0  0  0  0
  3  4  2  0  0  0  0
  4  5  1  0  0  0  0
  5  6  2  0  0  0  0
  6  7  1  0  0  0  0
  7  8  2  0  0  0  0
  3  8  1  0  0  0  0
  6  9  1  0  0  0  0
  9 10  2  0  0  0  0
 10 11  1  0  0  0  0
 11 12  1  0  0  0  0
 12 13  1  0  0  0  0
 11 14  2  0  0  0  0
 14 15  1  0  0  0  0
  9 15  1  0  0  0  0
M  END
>  <Catalog ID>
Z228585892

>  <PlateID>
1198308-R-SPFL-01

>  <Well>
B07

>  <MW (desalted)>
221.276

>  <ClogP>
1.566

>  <HBD>
1

>  <TPSA>
42.350

>  <RotBonds>
3

$$$$

            

 10 10  0  0  0  0            999 V2000
    0.5678    1.9393    0.0000 C   0  0  0  0  0  0  0  0  0  0  0  0
    0.5678    1.1143    0.0000 C   0  0  0  0  0  0  0  0  0  0  0  0
    1.2352    0.6294    0.0000 N   0  0  0  0  0  0  0  0  0  0  0  0
    0.9803   -0.1553    0.0000 C   0  0  0  0  0  0  0  0  0  0  0  0
    0.1553   -0.1553    0.0000 N   0  0  0  0  0  0  0  0  0  0  0  0
   -0.0997    0.6294    0.0000 N   0  0  0  0  0  0  0  0  0  0  0  0
    1.4652   -0.8227    0.0000 C   0  0  0  0  0  0  0  0  0  0  0  0
    1.9501   -1.4901    0.0000 F   0  0  0  0  0  0  0  0  0  0  0  0
    0.7977   -1.3076    0.0000 F   0  0  0  0  0  0  0  0  0  0  0  0
    2.1326   -0.3378    0.0000 F   0  0  0  0  0  0  0  0  0  0  0  0
  1  2  1  0  0  0  0
  2  3  2  0  0  0  0
  3  4  1  0  0  0  0
  4  5  2  0  0  0  0
  5  6  1  0  0  0  0
  2  6  1  0  0  0  0
  4  7  1  0  0  0  0
  7  8  1  0  0  0  0
  7  9  1  0  0  0  0
  7 10  1  0  0  0  0
M  END
>  <Catalog ID>
Z2238508632

>  <PlateID>
1198308-R-SPFL-01

>  <Well>
B08

>  <MW (desalted)>
151.090

>  <ClogP>
1.024

>  <HBD>
1

>  <TPSA>
41.570

>  <RotBonds>
1

$$$$

            

 12 13  0  0  0  0            999 V2000
    0.0768   -2.3215    0.0000 O   0  0  0  0  0  0  0  0  0  0  0  0
    0.8838   -2.1500    0.0000 C   0  0  0  0  0  0  0  0  0  0  0  0
    1.4358   -2.7631    0.0000 O   0  0  0  0  0  0  0  0  0  0  0  0
    1.1387   -1.3654    0.0000 C   0  0  0  0  0  0  0  0  0  0  0  0
    0.6538   -0.6979    0.0000 C   0  0  0  0  0  0  0  0  0  0  0  0
    1.1387   -0.0305    0.0000 N   0  0  0  0  0  0  0  0  0  0  0  0
    1.9233   -0.2854    0.0000 N   0  0  0  0  0  0  0  0  0  0  0  0
    2.6378    0.1271    0.0000 C   0  0  0  0  0  0  0  0  0  0  0  0
    3.3523   -0.2854    0.0000 C   0  0  0  0  0  0  0  0  0  0  0  0
    3.3523   -1.1104    0.0000 C   0  0  0  0  0  0  0  0  0  0  0  0
    2.6378   -1.5229    0.0000 C   0  0  0  0  0  0  0  0  0  0  0  0
    1.9233   -1.1104    0.0000 C   0  0  0  0  0  0  0  0  0  0  0  0
  1  2  1  0  0  0  0
  2  3  2  0  0  0  0
  2  4  1  0  0  0  0
  4  5  1  0  0  0  0
  5  6  2  0  0  0  0
  6  7  1  0  0  0  0
  7  8  1  0  0  0  0
  8  9  2  0  0  0  0
  9 10  1  0  0  0  0
 10 11  2  0  0  0  0
 11 12  1  0  0  0  0
  4 12  2  0  0  0  0
  7 12  1  0  0  0  0
M  END
>  <Catalog ID>
Z1143452918

>  <PlateID>
1198308-R-SPFL-01

>  <Well>
B09

>  <MW (desalted)>
162.145

>  <ClogP>
1.488

>  <HBD>
1

>  <TPSA>
54.600

>  <RotBonds>
1

$$$$

            

 11 12  0  0  0  0            999 V2000
    4.0668    2.3479    0.0000 O   0  0  0  0  0  0  0  0  0  0  0  0
    3.3523    1.9354    0.0000 C   0  0  0  0  0  0  0  0  0  0  0  0
    3.3523    1.1104    0.0000 N   0  0  0  0  0  0  0  0  0  0  0  0
    2.6378    0.6979    0.0000 C   0  0  0  0  0  0  0  0  0  0  0  0
    2.6378   -0.1271    0.0000 O   0  0  0  0  0  0  0  0  0  0  0  0
    1.9233    1.1104    0.0000 C   0  0  0  0  0  0  0  0  0  0  0  0
    1.1387    0.8555    0.0000 N   0  0  0  0  0  0  0  0  0  0  0  0
    0.6538    1.5229    0.0000 C   0  0  0  0  0  0  0  0  0  0  0  0
    1.1387    2.1904    0.0000 C   0  0  0  0  0  0  0  0  0  0  0  0
    1.9233    1.9354    0.0000 C   0  0  0  0  0  0  0  0  0  0  0  0
    2.6378    2.3479    0.0000 N   0  0  0  0  0  0  0  0  0  0  0  0
  1  2  2  0  0  0  0
  2  3  1  0  0  0  0
  3  4  1  0  0  0  0
  4  5  2  0  0  0  0
  4  6  1  0  0  0  0
  6  7  1  0  0  0  0
  7  8  1  0  0  0  0
  8  9  2  0  0  0  0
  9 10  1  0  0  0  0
  6 10  2  0  0  0  0
 10 11  1  0  0  0  0
  2 11  1  0  0  0  0
M  END
>  <Catalog ID>
Z1198175553

>  <PlateID>
1198308-R-SPFL-01

>  <Well>
B10

>  <MW (desalted)>
151.123

>  <ClogP>
-0.556

>  <HBD>
3

>  <TPSA>
73.990

>  <RotBonds>
0

$$$$

            

 10 10  0  0  0  0            999 V2000
    0.0000    2.4750    0.0000 O   0  0  0  0  0  0  0  0  0  0  0  0
    0.7145    2.0625    0.0000 C   0  0  0  0  0  0  0  0  0  0  0  0
    1.4289    2.4750    0.0000 O   0  0  0  0  0  0  0  0  0  0  0  0
    0.7145    1.2375    0.0000 C   0  0  0  0  0  0  0  0  0  0  0  0
    1.4289    0.8250    0.0000 C   0  0  0  0  0  0  0  0  0  0  0  0
    1.4289   -0.0000    0.0000 C   0  0  0  0  0  0  0  0  0  0  0  0
    0.7145   -0.4125    0.0000 C   0  0  0  0  0  0  0  0  0  0  0  0
    0.7145   -1.2375    0.0000 Cl  0  0  0  0  0  0  0  0  0  0  0  0
    0.0000    0.0000    0.0000 C   0  0  0  0  0  0  0  0  0  0  0  0
    0.0000    0.8250    0.0000 N   0  0  0  0  0  0  0  0  0  0  0  0
  1  2  1  0  0  0  0
  2  3  2  0  0  0  0
  2  4  1  0  0  0  0
  4  5  2  0  0  0  0
  5  6  1  0  0  0  0
  6  7  2  0  0  0  0
  7  8  1  0  0  0  0
  7  9  1  0  0  0  0
  9 10  2  0  0  0  0
  4 10  1  0  0  0  0
M  END
>  <Catalog ID>
Z1201622823

>  <PlateID>
1198308-R-SPFL-01

>  <Well>
B11

>  <MW (desalted)>
157.554

>  <ClogP>
1.755

>  <HBD>
1

>  <TPSA>
50.190

>  <RotBonds>
1

$$$$

            

 12 12  0  0  0  0            999 V2000
    0.5678    1.9393    0.0000 C   0  0  0  0  0  0  0  0  0  0  0  0
    0.5678    1.1143    0.0000 N   0  0  0  0  0  0  0  0  0  0  0  0
    1.2352    0.6294    0.0000 N   0  0  0  0  0  0  0  0  0  0  0  0
    0.9803   -0.1553    0.0000 C   0  0  0  0  0  0  0  0  0  0  0  0
    0.1553   -0.1553    0.0000 C   0  0  0  0  0  0  0  0  0  0  0  0
   -0.0997    0.6294    0.0000 C   0  0  0  0  0  0  0  0  0  0  0  0
   -0.8843    0.8843    0.0000 C   0  0  0  0  0  0  0  0  0  0  0  0
   -1.0558    1.6913    0.0000 O   0  0  0  0  0  0  0  0  0  0  0  0
   -1.4974    0.3323    0.0000 O   0  0  0  0  0  0  0  0  0  0  0  0
    1.4652   -0.8227    0.0000 C   0  0  0  0  0  0  0  0  0  0  0  0
    2.2857   -0.7365    0.0000 F   0  0  0  0  0  0  0  0  0  0  0  0
    1.1296   -1.5764    0.0000 F   0  0  0  0  0  0  0  0  0  0  0  0
  1  2  1  0  0  0  0
  2  3  1  0  0  0  0
  3  4  2  0  0  0  0
  4  5  1  0  0  0  0
  5  6  2  0  0  0  0
  2  6  1  0  0  0  0
  6  7  1  0  0  0  0
  7  8  2  0  0  0  0
  7  9  1  0  0  0  0
  4 10  1  0  0  0  0
 10 11  1  0  0  0  0
 10 12  1  0  0  0  0
M  END
>  <Catalog ID>
Z1198266917

>  <PlateID>
1198308-R-SPFL-01

>  <Well>
C02

>  <MW (desalted)>
176.121

>  <ClogP>
0.456

>  <HBD>
1

>  <TPSA>
55.120

>  <RotBonds>
2

$$$$

            

 11 11  0  0  0  0            999 V2000
    1.9967    3.5893    0.0000 C   0  0  0  0  0  0  0  0  0  0  0  0
    1.2822    3.1768    0.0000 C   0  0  0  0  0  0  0  0  0  0  0  0
    0.5678    3.5893    0.0000 C   0  0  0  0  0  0  0  0  0  0  0  0
    1.2822    2.3518    0.0000 N   0  0  0  0  0  0  0  0  0  0  0  0
    0.5678    1.9393    0.0000 C   0  0  0  0  0  0  0  0  0  0  0  0
    0.5678    1.1143    0.0000 C   0  0  0  0  0  0  0  0  0  0  0  0
    1.2352    0.6294    0.0000 C   0  0  0  0  0  0  0  0  0  0  0  0
    0.9803   -0.1553    0.0000 N   0  0  0  0  0  0  0  0  0  0  0  0
    0.1553   -0.1553    0.0000 N   0  0  0  0  0  0  0  0  0  0  0  0
   -0.3297   -0.8227    0.0000 C   0  0  0  0  0  0  0  0  0  0  0  0
   -0.0997    0.6294    0.0000 C   0  0  0  0  0  0  0  0  0  0  0  0
  1  2  1  0  0  0  0
  2  3  1  0  0  0  0
  2  4  1  0  0  0  0
  4  5  1  0  0  0  0
  5  6  1  0  0  0  0
  6  7  1  0  0  0  0
  7  8  2  0  0  0  0
  8  9  1  0  0  0  0
  9 10  1  0  0  0  0
  9 11  1  0  0  0  0
  6 11  2  0  0  0  0
M  END
>  <Catalog ID>
Z90502502

>  <PlateID>
1198308-R-SPFL-01

>  <Well>
C03

>  <MW (desalted)>
153.225

>  <ClogP>
0.463

>  <HBD>
1

>  <TPSA>
29.850

>  <RotBonds>
3

$$$$

            

 14 15  0  0  0  0            999 V2000
    2.1434   -0.4125    0.0000 O   0  0  0  0  0  0  0  0  0  0  0  0
    2.1434   -1.2375    0.0000 C   0  0  0  0  0  0  0  0  0  0  0  0
    2.8579   -1.6500    0.0000 C   0  0  0  0  0  0  0  0  0  0  0  0
    2.8579   -2.4750    0.0000 N   0  0  0  0  0  0  0  0  0  0  0  0
    3.5724   -2.8875    0.0000 C   0  0  0  0  0  0  0  0  0  0  0  0
    3.5724   -3.7125    0.0000 C   0  0  0  0  0  0  0  0  0  0  0  0
    4.2868   -4.1250    0.0000 C   0  0  0  0  0  0  0  0  0  0  0  0
    4.2868   -4.9500    0.0000 C   0  0  0  0  0  0  0  0  0  0  0  0
    3.5724   -5.3625    0.0000 C   0  0  0  0  0  0  0  0  0  0  0  0
    2.8579   -4.9500    0.0000 C   0  0  0  0  0  0  0  0  0  0  0  0
    2.8579   -4.1250    0.0000 C   0  0  0  0  0  0  0  0  0  0  0  0
    2.1434   -2.8875    0.0000 C   0  0  0  0  0  0  0  0  0  0  0  0
    1.4289   -2.4750    0.0000 C   0  0  0  0  0  0  0  0  0  0  0  0
    1.4289   -1.6500    0.0000 N   0  0  0  0  0  0  0  0  0  0  0  0
  1  2  2  0  0  0  0
  2  3  1  0  0  0  0
  3  4  1  0  0  0  0
  4  5  1  0  0  0  0
  5  6  1  0  0  0  0
  6  7  2  0  0  0  0
  7  8  1  0  0  0  0
  8  9  2  0  0  0  0
  9 10  1  0  0  0  0
 10 11  2  0  0  0  0
  6 11  1  0  0  0  0
  4 12  1  0  0  0  0
 12 13  1  0  0  0  0
 13 14  1  0  0  0  0
  2 14  1  0  0  0  0
M  END
>  <Catalog ID>
Z46334767

>  <PlateID>
1198308-R-SPFL-01

>  <Well>
C04

>  <MW (desalted)>
190.242

>  <ClogP>
1.535

>  <HBD>
1

>  <TPSA>
32.340

>  <RotBonds>
2

$$$$

            

 12 13  0  0  0  0            999 V2000
    0.7145   -0.4125    0.0000 C   0  0  0  0  0  0  0  0  0  0  0  0
    0.7145   -1.2375    0.0000 N   0  0  0  0  0  0  0  0  0  0  0  0
    1.3819   -1.7224    0.0000 C   0  0  0  0  0  0  0  0  0  0  0  0
    1.1270   -2.5070    0.0000 C   0  0  0  0  0  0  0  0  0  0  0  0
    0.3020   -2.5070    0.0000 C   0  0  0  0  0  0  0  0  0  0  0  0
    0.0470   -1.7224    0.0000 N   0  0  0  0  0  0  0  0  0  0  0  0
    1.6119   -3.1745    0.0000 C   0  0  0  0  0  0  0  0  0  0  0  0
    2.4324   -3.0882    0.0000 C   0  0  0  0  0  0  0  0  0  0  0  0
    2.9173   -3.7557    0.0000 C   0  0  0  0  0  0  0  0  0  0  0  0
    2.5817   -4.5094    0.0000 C   0  0  0  0  0  0  0  0  0  0  0  0
    1.7613   -4.5956    0.0000 C   0  0  0  0  0  0  0  0  0  0  0  0
    1.2763   -3.9282    0.0000 N   0  0  0  0  0  0  0  0  0  0  0  0
  1  2  1  0  0  0  0
  2  3  1  0  0  0  0
  3  4  2  0  0  0  0
  4  5  1  0  0  0  0
  5  6  2  0  0  0  0
  2  6  1  0  0  0  0
  4  7  1  0  0  0  0
  7  8  1  0  0  0  0
  8  9  1  0  0  0  0
  9 10  1  0  0  0  0
 10 11  1  0  0  0  0
 11 12  1  0  0  0  0
  7 12  1  0  0  0  0
M  END
>  <Catalog ID>
Z1082217140

>  <PlateID>
1198308-R-SPFL-01

>  <Well>
C05

>  <MW (desalted)>
165.236

>  <ClogP>
0.608

>  <HBD>
1

>  <TPSA>
29.850

>  <RotBonds>
1

$$$$

            

 10 10  0  0  0  0            999 V2000
    0.5678    1.9393    0.0000 C   0  0  0  0  0  0  0  0  0  0  0  0
    0.5678    1.1143    0.0000 C   0  0  0  0  0  0  0  0  0  0  0  0
    1.2352    0.6294    0.0000 C   0  0  0  0  0  0  0  0  0  0  0  0
    0.9803   -0.1553    0.0000 C   0  0  0  0  0  0  0  0  0  0  0  0
    1.4652   -0.8227    0.0000 C   0  0  0  0  0  0  0  0  0  0  0  0
    1.1296   -1.5764    0.0000 C   0  0  0  0  0  0  0  0  0  0  0  0
    1.6145   -2.2438    0.0000 O   0  0  0  0  0  0  0  0  0  0  0  0
    0.3091   -1.6626    0.0000 O   0  0  0  0  0  0  0  0  0  0  0  0
    0.1553   -0.1553    0.0000 O   0  0  0  0  0  0  0  0  0  0  0  0
   -0.0997    0.6294    0.0000 N   0  0  0  0  0  0  0  0  0  0  0  0
  1  2  1  0  0  0  0
  2  3  1  0  0  0  0
  3  4  2  0  0  0  0
  4  5  1  0  0  0  0
  5  6  1  0  0  0  0
  6  7  2  0  0  0  0
  6  8  1  0  0  0  0
  4  9  1  0  0  0  0
  9 10  1  0  0  0  0
  2 10  2  0  0  0  0
M  END
>  <Catalog ID>
Z1205493696

>  <PlateID>
1198308-R-SPFL-01

>  <Well>
C06

>  <MW (desalted)>
141.125

>  <ClogP>
-0.338

>  <HBD>
1

>  <TPSA>
63.330

>  <RotBonds>
2

$$$$

            

 13 13  0  0  0  0            999 V2000
    0.0000    2.4750    0.0000 N   0  0  0  0  0  0  0  0  0  0  0  0
    0.7145    2.0625    0.0000 C   0  0  0  0  0  0  0  0  0  0  0  0
    1.4289    2.4750    0.0000 O   0  0  0  0  0  0  0  0  0  0  0  0
    0.7145    1.2375    0.0000 C   0  0  0  0  0  0  0  0  0  0  0  0
    1.4289    0.8250    0.0000 C   0  0  0  0  0  0  0  0  0  0  0  0
    1.4289   -0.0000    0.0000 N   0  0  0  0  0  0  0  0  0  0  0  0
    0.7145   -0.4125    0.0000 C   0  0  0  0  0  0  0  0  0  0  0  0
    0.0000    0.0000    0.0000 N   0  0  0  0  0  0  0  0  0  0  0  0
    0.0000    0.8250    0.0000 C   0  0  0  0  0  0  0  0  0  0  0  0
    0.7145   -1.2375    0.0000 C   0  0  0  0  0  0  0  0  0  0  0  0
    0.7145   -2.0625    0.0000 F   0  0  0  0  0  0  0  0  0  0  0  0
   -0.1105   -1.2375    0.0000 F   0  0  0  0  0  0  0  0  0  0  0  0
    1.5395   -1.2375    0.0000 F   0  0  0  0  0  0  0  0  0  0  0  0
  1  2  1  0  0  0  0
  2  3  2  0  0  0  0
  2  4  1  0  0  0  0
  4  5  2  0  0  0  0
  5  6  1  0  0  0  0
  6  7  2  0  0  0  0
  7  8  1  0  0  0  0
  8  9  2  0  0  0  0
  4  9  1  0  0  0  0
  7 10  1  0  0  0  0
 10 11  1  0  0  0  0
 10 12  1  0  0  0  0
 10 13  1  0  0  0  0
M  END
>  <Catalog ID>
Z1222424326

>  <PlateID>
1198308-R-SPFL-01

>  <Well>
C07

>  <MW (desalted)>
191.111

>  <ClogP>
-0.116

>  <HBD>
1

>  <TPSA>
68.870

>  <RotBonds>
2

$$$$

            

 13 14  0  0  0  0            999 V2000
    2.0367   -0.4741    0.0000 O   0  0  0  0  0  0  0  0  0  0  0  0
    2.0367   -1.2991    0.0000 C   0  0  0  0  0  0  0  0  0  0  0  0
    2.7041   -1.7840    0.0000 C   0  0  0  0  0  0  0  0  0  0  0  0
    2.4492   -2.5687    0.0000 C   0  0  0  0  0  0  0  0  0  0  0  0
    1.6242   -2.5687    0.0000 C   0  0  0  0  0  0  0  0  0  0  0  0
    1.1393   -3.2361    0.0000 C   0  0  0  0  0  0  0  0  0  0  0  0
    0.3188   -3.1499    0.0000 C   0  0  0  0  0  0  0  0  0  0  0  0
   -0.1661   -3.8173    0.0000 C   0  0  0  0  0  0  0  0  0  0  0  0
   -0.9866   -3.7311    0.0000 C   0  0  0  0  0  0  0  0  0  0  0  0
   -1.3222   -2.9774    0.0000 C   0  0  0  0  0  0  0  0  0  0  0  0
   -0.8372   -2.3099    0.0000 C   0  0  0  0  0  0  0  0  0  0  0  0
   -0.0168   -2.3962    0.0000 C   0  0  0  0  0  0  0  0  0  0  0  0
    1.3693   -1.7840    0.0000 N   0  0  0  0  0  0  0  0  0  0  0  0
  1  2  2  0  0  0  0
  2  3  1  0  0  0  0
  3  4  1  0  0  0  0
  4  5  1  0  0  0  0
  5  6  1  0  0  0  0
  6  7  1  0  0  0  0
  7  8  2  0  0  0  0
  8  9  1  0  0  0  0
  9 10  2  0  0  0  0
 10 11  1  0  0  0  0
 11 12  2  0  0  0  0
  7 12  1  0  0  0  0
  5 13  1  0  0  0  0
  2 13  1  0  0  0  0
M  END
>  <Catalog ID>
Z1270257271

>  <PlateID>
1198308-R-SPFL-01

>  <Well>
C08

>  <MW (desalted)>
175.227

>  <ClogP>
1.114

>  <HBD>
1

>  <TPSA>
29.100

>  <RotBonds>
2

$$$$

            

 15 16  0  0  0  0            999 V2000
    0.1067    4.7652    0.0000 C   0  0  0  0  0  0  0  0  0  0  0  0
   -0.6078    4.3527    0.0000 C   0  0  0  0  0  0  0  0  0  0  0  0
   -0.6078    3.5277    0.0000 N   0  0  0  0  0  0  0  0  0  0  0  0
   -1.3222    3.1152    0.0000 C   0  0  0  0  0  0  0  0  0  0  0  0
   -2.0367    3.5277    0.0000 C   0  0  0  0  0  0  0  0  0  0  0  0
   -2.0367    4.3527    0.0000 C   0  0  0  0  0  0  0  0  0  0  0  0
   -1.3222    4.7652    0.0000 C   0  0  0  0  0  0  0  0  0  0  0  0
   -1.3222    5.5902    0.0000 C   0  0  0  0  0  0  0  0  0  0  0  0
   -0.6078    6.0027    0.0000 O   0  0  0  0  0  0  0  0  0  0  0  0
   -2.0367    6.0027    0.0000 O   0  0  0  0  0  0  0  0  0  0  0  0
   -1.3222    2.2902    0.0000 C   0  0  0  0  0  0  0  0  0  0  0  0
   -0.6548    1.8053    0.0000 C   0  0  0  0  0  0  0  0  0  0  0  0
   -0.9097    1.0206    0.0000 C   0  0  0  0  0  0  0  0  0  0  0  0
   -1.7347    1.0206    0.0000 C   0  0  0  0  0  0  0  0  0  0  0  0
   -1.9897    1.8053    0.0000 O   0  0  0  0  0  0  0  0  0  0  0  0
  1  2  1  0  0  0  0
  2  3  2  0  0  0  0
  3  4  1  0  0  0  0
  4  5  2  0  0  0  0
  5  6  1  0  0  0  0
  6  7  2  0  0  0  0
  2  7  1  0  0  0  0
  7  8  1  0  0  0  0
  8  9  2  0  0  0  0
  8 10  1  0  0  0  0
  4 11  1  0  0  0  0
 11 12  2  0  0  0  0
 12 13  1  0  0  0  0
 13 14  2  0  0  0  0
 14 15  1  0  0  0  0
 11 15  1  0  0  0  0
M  END
>  <Catalog ID>
Z995001768

>  <PlateID>
1198308-R-SPFL-01

>  <Well>
C09

>  <MW (desalted)>
203.194

>  <ClogP>
2.482

>  <HBD>
1

>  <TPSA>
63.330

>  <RotBonds>
2

$$$$

            

 12 12  0  0  0  0            999 V2000
    0.0000    2.4750    0.0000 C   0  0  0  0  0  0  0  0  0  0  0  0
    0.7145    2.0625    0.0000 O   0  0  0  0  0  0  0  0  0  0  0  0
    0.7145    1.2375    0.0000 C   0  0  0  0  0  0  0  0  0  0  0  0
    1.4289    0.8250    0.0000 C   0  0  0  0  0  0  0  0  0  0  0  0
    1.4289   -0.0000    0.0000 C   0  0  0  0  0  0  0  0  0  0  0  0
    0.7145   -0.4125    0.0000 C   0  0  0  0  0  0  0  0  0  0  0  0
    0.7145   -1.2375    0.0000 C   0  0  0  0  0  0  0  0  0  0  0  0
    1.4289   -1.6500    0.0000 O   0  0  0  0  0  0  0  0  0  0  0  0
    0.0000    0.0000    0.0000 C   0  0  0  0  0  0  0  0  0  0  0  0
    0.0000    0.8250    0.0000 C   0  0  0  0  0  0  0  0  0  0  0  0
   -0.7145    1.2375    0.0000 O   0  0  0  0  0  0  0  0  0  0  0  0
   -0.7145    2.0625    0.0000 C   0  0  0  0  0  0  0  0  0  0  0  0
  1  2  1  0  0  0  0
  2  3  1  0  0  0  0
  3  4  2  0  0  0  0
  4  5  1  0  0  0  0
  5  6  2  0  0  0  0
  6  7  1  0  0  0  0
  7  8  1  0  0  0  0
  6  9  1  0  0  0  0
  9 10  2  0  0  0  0
  3 10  1  0  0  0  0
 10 11  1  0  0  0  0
 11 12  1  0  0  0  0
M  END
>  <Catalog ID>
Z104477212

>  <PlateID>
1198308-R-SPFL-01

>  <Well>
C10

>  <MW (desalted)>
168.190

>  <ClogP>
0.762

>  <HBD>
1

>  <TPSA>
38.690

>  <RotBonds>
3

$$$$

            

 11 12  0  0  0  0            999 V2000
    4.0668    3.1729    0.0000 O   0  0  0  0  0  0  0  0  0  0  0  0
    4.0668    2.3479    0.0000 C   0  0  0  0  0  0  0  0  0  0  0  0
    3.3523    1.9354    0.0000 C   0  0  0  0  0  0  0  0  0  0  0  0
    3.3523    1.1104    0.0000 C   0  0  0  0  0  0  0  0  0  0  0  0
    2.6378    0.6979    0.0000 C   0  0  0  0  0  0  0  0  0  0  0  0
    1.9233    1.1104    0.0000 C   0  0  0  0  0  0  0  0  0  0  0  0
    1.1387    0.8555    0.0000 O   0  0  0  0  0  0  0  0  0  0  0  0
    0.6538    1.5229    0.0000 C   0  0  0  0  0  0  0  0  0  0  0  0
    1.1387    2.1904    0.0000 O   0  0  0  0  0  0  0  0  0  0  0  0
    1.9233    1.9354    0.0000 C   0  0  0  0  0  0  0  0  0  0  0  0
    2.6378    2.3479    0.0000 C   0  0  0  0  0  0  0  0  0  0  0  0
  1  2  1  0  0  0  0
  2  3  1  0  0  0  0
  3  4  2  0  0  0  0
  4  5  1  0  0  0  0
  5  6  2  0  0  0  0
  6  7  1  0  0  0  0
  7  8  1  0  0  0  0
  8  9  1  0  0  0  0
  9 10  1  0  0  0  0
  6 10  1  0  0  0  0
 10 11  2  0  0  0  0
  3 11  1  0  0  0  0
M  END
>  <Catalog ID>
Z104477372

>  <PlateID>
1198308-R-SPFL-01

>  <Well>
C11

>  <MW (desalted)>
152.147

>  <ClogP>
1.069

>  <HBD>
1

>  <TPSA>
38.690

>  <RotBonds>
1

$$$$

            

 11 11  0  0  0  0            999 V2000
   -0.7145    2.8875    0.0000 N   0  0  0  0  0  0  0  0  0  0  0  0
    0.0000    2.4750    0.0000 S   0  0  0  0  0  0  0  0  0  0  0  0
   -0.4125    1.7605    0.0000 O   0  0  0  0  0  0  0  0  0  0  0  0
    0.4125    3.1895    0.0000 O   0  0  0  0  0  0  0  0  0  0  0  0
    0.7145    2.0625    0.0000 C   0  0  0  0  0  0  0  0  0  0  0  0
    0.7145    1.2375    0.0000 C   0  0  0  0  0  0  0  0  0  0  0  0
    1.4289    0.8250    0.0000 C   0  0  0  0  0  0  0  0  0  0  0  0
    1.4289   -0.0000    0.0000 C   0  0  0  0  0  0  0  0  0  0  0  0
    0.7145   -0.4125    0.0000 C   0  0  0  0  0  0  0  0  0  0  0  0
    0.0000    0.0000    0.0000 C   0  0  0  0  0  0  0  0  0  0  0  0
    0.0000    0.8250    0.0000 C   0  0  0  0  0  0  0  0  0  0  0  0
  1  2  1  0  0  0  0
  2  3  2  0  0  0  0
  2  4  2  0  0  0  0
  2  5  1  0  0  0  0
  5  6  1  0  0  0  0
  6  7  2  0  0  0  0
  7  8  1  0  0  0  0
  8  9  2  0  0  0  0
  9 10  1  0  0  0  0
 10 11  2  0  0  0  0
  6 11  1  0  0  0  0
M  END
>  <Catalog ID>
Z89268868

>  <PlateID>
1198308-R-SPFL-01

>  <Well>
D02

>  <MW (desalted)>
171.217

>  <ClogP>
0.274

>  <HBD>
1

>  <TPSA>
60.160

>  <RotBonds>
2

$$$$

            

 12 13  0  0  0  0            999 V2000
    0.7145   -0.4125    0.0000 N   0  0  0  0  0  0  0  0  0  0  0  0
    0.7145   -1.2375    0.0000 C   0  0  0  0  0  0  0  0  0  0  0  0
    1.3819   -1.7224    0.0000 C   0  0  0  0  0  0  0  0  0  0  0  0
    1.1270   -2.5070    0.0000 C   0  0  0  0  0  0  0  0  0  0  0  0
    0.3020   -2.5070    0.0000 N   0  0  0  0  0  0  0  0  0  0  0  0
    0.0470   -1.7224    0.0000 C   0  0  0  0  0  0  0  0  0  0  0  0
   -0.1830   -3.1745    0.0000 C   0  0  0  0  0  0  0  0  0  0  0  0
    0.1526   -3.9282    0.0000 C   0  0  0  0  0  0  0  0  0  0  0  0
   -0.3323   -4.5956    0.0000 C   0  0  0  0  0  0  0  0  0  0  0  0
   -1.1528   -4.5094    0.0000 C   0  0  0  0  0  0  0  0  0  0  0  0
   -1.4884   -3.7557    0.0000 C   0  0  0  0  0  0  0  0  0  0  0  0
   -1.0034   -3.0882    0.0000 C   0  0  0  0  0  0  0  0  0  0  0  0
  1  2  1  0  0  0  0
  2  3  1  0  0  0  0
  3  4  1  0  0  0  0
  4  5  1  0  0  0  0
  5  6  1  0  0  0  0
  2  6  1  0  0  0  0
  5  7  1  0  0  0  0
  7  8  2  0  0  0  0
  8  9  1  0  0  0  0
  9 10  2  0  0  0  0
 10 11  1  0  0  0  0
 11 12  2  0  0  0  0
  7 12  1  0  0  0  0
M  END
>  <Catalog ID>
Z415647888

>  <PlateID>
1198308-R-SPFL-01

>  <Well>
D03

>  <MW (desalted)>
162.232

>  <ClogP>
1.165

>  <HBD>
1

>  <TPSA>
29.260

>  <RotBonds>
1

$$$$

            

 10 10  0  0  0  0            999 V2000
    0.7145    2.8875    0.0000 N   0  0  0  0  0  0  0  0  0  0  0  0
    0.7145    2.0625    0.0000 S   0  0  0  0  0  0  0  0  0  0  0  0
   -0.1105    2.0625    0.0000 O   0  0  0  0  0  0  0  0  0  0  0  0
    1.5395    2.0625    0.0000 O   0  0  0  0  0  0  0  0  0  0  0  0
    0.7145    1.2375    0.0000 C   0  0  0  0  0  0  0  0  0  0  0  0
    1.4289    0.8250    0.0000 C   0  0  0  0  0  0  0  0  0  0  0  0
    1.4289   -0.0000    0.0000 C   0  0  0  0  0  0  0  0  0  0  0  0
    0.7145   -0.4125    0.0000 C   0  0  0  0  0  0  0  0  0  0  0  0
    0.0000    0.0000    0.0000 C   0  0  0  0  0  0  0  0  0  0  0  0
    0.0000    0.8250    0.0000 C   0  0  0  0  0  0  0  0  0  0  0  0
  1  2  1  0  0  0  0
  2  3  2  0  0  0  0
  2  4  2  0  0  0  0
  2  5  1  0  0  0  0
  5  6  1  0  0  0  0
  6  7  1  0  0  0  0
  7  8  1  0  0  0  0
  8  9  1  0  0  0  0
  9 10  1  0  0  0  0
  5 10  1  0  0  0  0
M  END
>  <Catalog ID>
Z734461568

>  <PlateID>
1198308-R-SPFL-01

>  <Well>
D04

>  <MW (desalted)>
163.238

>  <ClogP>
0.537

>  <HBD>
1

>  <TPSA>
60.160

>  <RotBonds>
1

$$$$

            

 11 12  0  0  0  0            999 V2000
    4.6713    2.4188    0.0000 O   0  0  0  0  0  0  0  0  0  0  0  0
    4.1569    1.7738    0.0000 C   0  0  0  0  0  0  0  0  0  0  0  0
    4.5149    1.0305    0.0000 C   0  0  0  0  0  0  0  0  0  0  0  0
    4.1569    0.2872    0.0000 C   0  0  0  0  0  0  0  0  0  0  0  0
    3.3526    0.1036    0.0000 C   0  0  0  0  0  0  0  0  0  0  0  0
    2.7076    0.6180    0.0000 C   0  0  0  0  0  0  0  0  0  0  0  0
    1.9230    0.3631    0.0000 S   0  0  0  0  0  0  0  0  0  0  0  0
    1.4380    1.0305    0.0000 C   0  0  0  0  0  0  0  0  0  0  0  0
    1.9230    1.6979    0.0000 C   0  0  0  0  0  0  0  0  0  0  0  0
    2.7076    1.4430    0.0000 C   0  0  0  0  0  0  0  0  0  0  0  0
    3.3526    1.9574    0.0000 N   0  0  0  0  0  0  0  0  0  0  0  0
  1  2  2  0  0  0  0
  2  3  1  0  0  0  0
  3  4  1  0  0  0  0
  4  5  1  0  0  0  0
  5  6  1  0  0  0  0
  6  7  1  0  0  0  0
  7  8  1  0  0  0  0
  8  9  2  0  0  0  0
  9 10  1  0  0  0  0
  6 10  2  0  0  0  0
 10 11  1  0  0  0  0
  2 11  1  0  0  0  0
M  END
>  <Catalog ID>
Z1033300692

>  <PlateID>
1198308-R-SPFL-01

>  <Well>
D05

>  <MW (desalted)>
167.228

>  <ClogP>
1.535

>  <HBD>
1

>  <TPSA>
29.100

>  <RotBonds>
0

$$$$

            

 11 12  0  0  0  0            999 V2000
   -0.5837   -1.4124    0.0000 O   0  0  0  0  0  0  0  0  0  0  0  0
   -0.1712   -0.6979    0.0000 C   0  0  0  0  0  0  0  0  0  0  0  0
    0.6538   -0.6979    0.0000 C   0  0  0  0  0  0  0  0  0  0  0  0
    1.1387   -0.0305    0.0000 C   0  0  0  0  0  0  0  0  0  0  0  0
    1.9233   -0.2854    0.0000 C   0  0  0  0  0  0  0  0  0  0  0  0
    2.6378    0.1271    0.0000 C   0  0  0  0  0  0  0  0  0  0  0  0
    3.3523   -0.2854    0.0000 C   0  0  0  0  0  0  0  0  0  0  0  0
    3.3523   -1.1104    0.0000 C   0  0  0  0  0  0  0  0  0  0  0  0
    2.6378   -1.5229    0.0000 C   0  0  0  0  0  0  0  0  0  0  0  0
    1.9233   -1.1104    0.0000 C   0  0  0  0  0  0  0  0  0  0  0  0
    1.1387   -1.3654    0.0000 O   0  0  0  0  0  0  0  0  0  0  0  0
  1  2  1  0  0  0  0
  2  3  1  0  0  0  0
  3  4  2  0  0  0  0
  4  5  1  0  0  0  0
  5  6  2  0  0  0  0
  6  7  1  0  0  0  0
  7  8  2  0  0  0  0
  8  9  1  0  0  0  0
  9 10  2  0  0  0  0
  5 10  1  0  0  0  0
 10 11  1  0  0  0  0
  3 11  1  0  0  0  0
M  END
>  <Catalog ID>
Z164677912

>  <PlateID>
1198308-R-SPFL-01

>  <Well>
D06

>  <MW (desalted)>
148.159

>  <ClogP>
1.664

>  <HBD>
1

>  <TPSA>
33.370

>  <RotBonds>
1

$$$$

            

 13 15  0  0  0  0            999 V2000
    3.2789    2.0625    0.0000 O   0  0  0  0  0  0  0  0  0  0  0  0
    3.2789    1.2375    0.0000 C   0  0  0  0  0  0  0  0  0  0  0  0
    3.9934    0.8250    0.0000 N   0  0  0  0  0  0  0  0  0  0  0  0
    3.9934    0.0000    0.0000 C   0  0  0  0  0  0  0  0  0  0  0  0
    3.2789   -0.4125    0.0000 N   0  0  0  0  0  0  0  0  0  0  0  0
    2.5645    0.0000    0.0000 C   0  0  0  0  0  0  0  0  0  0  0  0
    1.7798   -0.2549    0.0000 C   0  0  0  0  0  0  0  0  0  0  0  0
    1.2949    0.4125    0.0000 C   0  0  0  0  0  0  0  0  0  0  0  0
    1.7798    1.0799    0.0000 C   0  0  0  0  0  0  0  0  0  0  0  0
    2.5645    0.8250    0.0000 C   0  0  0  0  0  0  0  0  0  0  0  0
    4.7079   -0.4125    0.0000 C   0  0  0  0  0  0  0  0  0  0  0  0
    5.5329   -0.4125    0.0000 C   0  0  0  0  0  0  0  0  0  0  0  0
    5.1204   -1.1270    0.0000 C   0  0  0  0  0  0  0  0  0  0  0  0
  1  2  2  0  0  0  0
  2  3  1  0  0  0  0
  3  4  1  0  0  0  0
  4  5  2  0  0  0  0
  5  6  1  0  0  0  0
  6  7  1  0  0  0  0
  7  8  1  0  0  0  0
  8  9  1  0  0  0  0
  9 10  1  0  0  0  0
  6 10  2  0  0  0  0
  2 10  1  0  0  0  0
  4 11  1  0  0  0  0
 11 12  1  0  0  0  0
 12 13  1  0  0  0  0
 11 13  1  0  0  0  0
M  END
>  <Catalog ID>
Z813019972

>  <PlateID>
1198308-R-SPFL-01

>  <Well>
D07

>  <MW (desalted)>
176.215

>  <ClogP>
0.667

>  <HBD>
1

>  <TPSA>
41.460

>  <RotBonds>
1

$$$$

            

 12 13  0  0  0  0            999 V2000
    1.3222    4.7652    0.0000 Cl  0  0  0  0  0  0  0  0  0  0  0  0
    2.0367    4.3527    0.0000 C   0  0  0  0  0  0  0  0  0  0  0  0
    2.7512    4.7652    0.0000 C   0  0  0  0  0  0  0  0  0  0  0  0
    3.4656    4.3527    0.0000 C   0  0  0  0  0  0  0  0  0  0  0  0
    3.4656    3.5277    0.0000 C   0  0  0  0  0  0  0  0  0  0  0  0
    2.7512    3.1152    0.0000 C   0  0  0  0  0  0  0  0  0  0  0  0
    2.0367    3.5277    0.0000 C   0  0  0  0  0  0  0  0  0  0  0  0
    2.7512    2.2902    0.0000 C   0  0  0  0  0  0  0  0  0  0  0  0
    3.4186    1.8053    0.0000 N   0  0  0  0  0  0  0  0  0  0  0  0
    3.1637    1.0206    0.0000 N   0  0  0  0  0  0  0  0  0  0  0  0
    2.3387    1.0206    0.0000 C   0  0  0  0  0  0  0  0  0  0  0  0
    2.0837    1.8053    0.0000 O   0  0  0  0  0  0  0  0  0  0  0  0
  1  2  1  0  0  0  0
  2  3  2  0  0  0  0
  3  4  1  0  0  0  0
  4  5  2  0  0  0  0
  5  6  1  0  0  0  0
  6  7  2  0  0  0  0
  2  7  1  0  0  0  0
  6  8  1  0  0  0  0
  8  9  2  0  0  0  0
  9 10  1  0  0  0  0
 10 11  2  0  0  0  0
 11 12  1  0  0  0  0
  8 12  1  0  0  0  0
M  END
>  <Catalog ID>
Z55670851

>  <PlateID>
1198308-R-SPFL-01

>  <Well>
D08

>  <MW (desalted)>
180.591

>  <ClogP>
1.435

>  <HBD>
0

>  <TPSA>
38.920

>  <RotBonds>
1

$$$$

            

 14 13  0  0  0  0            999 V2000
    0.0000    0.0000    0.0000 Cl  0  0  0  0  0  0  0  0  0  0  0  0
    2.0036    0.0000    0.0000 Cl  0  0  0  0  0  0  0  0  0  0  0  0
    0.7145   -5.3625    0.0000 C   0  0  0  0  0  0  0  0  0  0  0  0
   -0.0000   -5.7750    0.0000 C   0  0  0  0  0  0  0  0  0  0  0  0
   -0.7145   -5.3625    0.0000 N   0  0  0  0  0  0  0  0  0  0  0  0
   -0.7145   -4.5375    0.0000 C   0  0  0  0  0  0  0  0  0  0  0  0
   -0.0000   -4.1250    0.0000 C   0  0  0  0  0  0  0  0  0  0  0  0
    0.7145   -4.5375    0.0000 C   0  0  0  0  0  0  0  0  0  0  0  0
    0.0000   -3.3000    0.0000 C   0  0  0  0  0  0  0  0  0  0  0  0
   -0.7145   -2.8875    0.0000 C   0  0  0  0  0  0  0  0  0  0  0  0
   -0.7145   -2.0625    0.0000 C   0  0  0  0  0  0  0  0  0  0  0  0
    0.0000   -1.6500    0.0000 N   0  0  0  0  0  0  0  0  0  0  0  0
    0.7145   -2.0625    0.0000 C   0  0  0  0  0  0  0  0  0  0  0  0
    0.7145   -2.8875    0.0000 C   0  0  0  0  0  0  0  0  0  0  0  0
  3  4  1  0  0  0  0
  4  5  1  0  0  0  0
  5  6  1  0  0  0  0
  6  7  1  0  0  0  0
  7  8  1  0  0  0  0
  3  8  1  0  0  0  0
  7  9  1  0  0  0  0
  9 10  2  0  0  0  0
 10 11  1  0  0  0  0
 11 12  2  0  0  0  0
 12 13  1  0  0  0  0
 13 14  2  0  0  0  0
  9 14  1  0  0  0  0
M  END
>  <Catalog ID>
Z2092370409

>  <PlateID>
1198308-R-SPFL-01

>  <Well>
D09

>  <MW (desalted)>
162.232

>  <ClogP>
0.996

>  <HBD>
1

>  <TPSA>
24.920

>  <RotBonds>
1

$$$$

            

 10 10  0  0  0  0            999 V2000
    0.0000    2.4750    0.0000 O   0  0  0  0  0  0  0  0  0  0  0  0
    0.7145    2.0625    0.0000 C   0  0  0  0  0  0  0  0  0  0  0  0
    1.4289    2.4750    0.0000 O   0  0  0  0  0  0  0  0  0  0  0  0
    0.7145    1.2375    0.0000 C   0  0  0  0  0  0  0  0  0  0  0  0
    1.4289    0.8250    0.0000 N   0  0  0  0  0  0  0  0  0  0  0  0
    1.4289   -0.0000    0.0000 C   0  0  0  0  0  0  0  0  0  0  0  0
    0.7145   -0.4125    0.0000 C   0  0  0  0  0  0  0  0  0  0  0  0
    0.0000    0.0000    0.0000 C   0  0  0  0  0  0  0  0  0  0  0  0
    0.0000    0.8250    0.0000 C   0  0  0  0  0  0  0  0  0  0  0  0
   -0.7145    1.2375    0.0000 F   0  0  0  0  0  0  0  0  0  0  0  0
  1  2  1  0  0  0  0
  2  3  2  0  0  0  0
  2  4  1  0  0  0  0
  4  5  2  0  0  0  0
  5  6  1  0  0  0  0
  6  7  2  0  0  0  0
  7  8  1  0  0  0  0
  8  9  2  0  0  0  0
  4  9  1  0  0  0  0
  9 10  1  0  0  0  0
M  END
>  <Catalog ID>
Z1741966710

>  <PlateID>
1198308-R-SPFL-01

>  <Well>
D10

>  <MW (desalted)>
141.100

>  <ClogP>
0.825

>  <HBD>
1

>  <TPSA>
50.190

>  <RotBonds>
1

$$$$

            

 15 14  0  0  0  0            999 V2000
    0.0000    0.0000    0.0000 Cl  0  0  0  0  0  0  0  0  0  0  0  0
    2.0036    0.0000    0.0000 Cl  0  0  0  0  0  0  0  0  0  0  0  0
    1.2406   -1.6500    0.0000 C   0  0  0  0  0  0  0  0  0  0  0  0
    1.2406   -2.4750    0.0000 C   0  0  0  0  0  0  0  0  0  0  0  0
    1.9080   -2.9599    0.0000 C   0  0  0  0  0  0  0  0  0  0  0  0
    1.6531   -3.7445    0.0000 S   0  0  0  0  0  0  0  0  0  0  0  0
    0.8281   -3.7445    0.0000 C   0  0  0  0  0  0  0  0  0  0  0  0
    0.3432   -4.4120    0.0000 C   0  0  0  0  0  0  0  0  0  0  0  0
   -0.4773   -4.3257    0.0000 C   0  0  0  0  0  0  0  0  0  0  0  0
   -0.9622   -4.9932    0.0000 C   0  0  0  0  0  0  0  0  0  0  0  0
   -1.7827   -4.9070    0.0000 C   0  0  0  0  0  0  0  0  0  0  0  0
   -2.1183   -4.1533    0.0000 C   0  0  0  0  0  0  0  0  0  0  0  0
   -1.6333   -3.4858    0.0000 C   0  0  0  0  0  0  0  0  0  0  0  0
   -0.8129   -3.5721    0.0000 N   0  0  0  0  0  0  0  0  0  0  0  0
    0.5732   -2.9599    0.0000 N   0  0  0  0  0  0  0  0  0  0  0  0
  3  4  1  0  0  0  0
  4  5  2  0  0  0  0
  5  6  1  0  0  0  0
  6  7  1  0  0  0  0
  7  8  1  0  0  0  0
  8  9  1  0  0  0  0
  9 10  2  0  0  0  0
 10 11  1  0  0  0  0
 11 12  2  0  0  0  0
 12 13  1  0  0  0  0
 13 14  2  0  0  0  0
  9 14  1  0  0  0  0
  7 15  2  0  0  0  0
  4 15  1  0  0  0  0
M  END
>  <Catalog ID>
Z1259340998

>  <PlateID>
1198308-R-SPFL-01

>  <Well>
D11

>  <MW (desalted)>
190.265

>  <ClogP>
1.555

>  <HBD>
0

>  <TPSA>
25.780

>  <RotBonds>
2

$$$$

            

 11 10  0  0  0  0            999 V2000
    0.0000    0.0000    0.0000 Cl  0  0  0  0  0  0  0  0  0  0  0  0
    4.6142    1.0063    0.0000 C   0  0  0  0  0  0  0  0  0  0  0  0
    3.7984    1.1293    0.0000 O   0  0  0  0  0  0  0  0  0  0  0  0
    3.2840    0.4843    0.0000 C   0  0  0  0  0  0  0  0  0  0  0  0
    2.7696    1.1293    0.0000 C   0  0  0  0  0  0  0  0  0  0  0  0
    4.0273    0.1263    0.0000 C   0  0  0  0  0  0  0  0  0  0  0  0
    4.2109   -0.6780    0.0000 C   0  0  0  0  0  0  0  0  0  0  0  0
    3.6965   -1.3230    0.0000 C   0  0  0  0  0  0  0  0  0  0  0  0
    2.8715   -1.3230    0.0000 N   0  0  0  0  0  0  0  0  0  0  0  0
    2.3571   -0.6780    0.0000 C   0  0  0  0  0  0  0  0  0  0  0  0
    2.5407    0.1263    0.0000 C   0  0  0  0  0  0  0  0  0  0  0  0
  2  3  1  0  0  0  0
  3  4  1  0  0  0  0
  4  5  1  0  0  0  0
  4  6  1  0  0  0  0
  6  7  1  0  0  0  0
  7  8  1  0  0  0  0
  8  9  1  0  0  0  0
  9 10  1  0  0  0  0
 10 11  1  0  0  0  0
  4 11  1  0  0  0  0
M  END
>  <Catalog ID>
Z1946684585

>  <PlateID>
1198308-R-SPFL-01

>  <Well>
E02

>  <MW (desalted)>
143.227

>  <ClogP>
0.642

>  <HBD>
1

>  <TPSA>
21.260

>  <RotBonds>
1

$$$$

            

 10 10  0  0  0  0            999 V2000
    1.1198    1.7274    0.0000 C   0  0  0  0  0  0  0  0  0  0  0  0
    0.5678    1.1143    0.0000 C   0  0  0  0  0  0  0  0  0  0  0  0
    0.0157    1.7274    0.0000 C   0  0  0  0  0  0  0  0  0  0  0  0
    1.2352    0.6294    0.0000 C   0  0  0  0  0  0  0  0  0  0  0  0
    0.9803   -0.1553    0.0000 C   0  0  0  0  0  0  0  0  0  0  0  0
    0.1553   -0.1553    0.0000 C   0  0  0  0  0  0  0  0  0  0  0  0
   -0.0997    0.6294    0.0000 O   0  0  0  0  0  0  0  0  0  0  0  0
   -0.3297   -0.8227    0.0000 C   0  0  0  0  0  0  0  0  0  0  0  0
    0.0059   -1.5764    0.0000 O   0  0  0  0  0  0  0  0  0  0  0  0
   -1.1501   -0.7365    0.0000 O   0  0  0  0  0  0  0  0  0  0  0  0
  1  2  1  0  0  0  0
  2  3  1  0  0  0  0
  2  4  1  0  0  0  0
  4  5  1  0  0  0  0
  5  6  1  0  0  0  0
  6  7  1  0  0  0  0
  2  7  1  0  0  0  0
  6  8  1  0  0  0  0
  8  9  2  0  0  0  0
  8 10  1  0  0  0  0
M  END
>  <Catalog ID>
Z1509040812

>  <PlateID>
1198308-R-SPFL-01

>  <Well>
E03

>  <MW (desalted)>
144.168

>  <ClogP>
1.090

>  <HBD>
1

>  <TPSA>
46.530

>  <RotBonds>
1

$$$$

            

 14 16  0  0  0  0            999 V2000
    0.0992   -3.2299    0.0000 C   0  0  0  0  0  0  0  0  0  0  0  0
    0.0992   -2.4049    0.0000 C   0  0  0  0  0  0  0  0  0  0  0  0
    0.8838   -2.1500    0.0000 C   0  0  0  0  0  0  0  0  0  0  0  0
    1.3687   -2.8174    0.0000 C   0  0  0  0  0  0  0  0  0  0  0  0
    0.8838   -3.4849    0.0000 N   0  0  0  0  0  0  0  0  0  0  0  0
    1.1387   -1.3654    0.0000 N   0  0  0  0  0  0  0  0  0  0  0  0
    0.6538   -0.6979    0.0000 N   0  0  0  0  0  0  0  0  0  0  0  0
    1.1387   -0.0305    0.0000 C   0  0  0  0  0  0  0  0  0  0  0  0
    1.9233   -0.2854    0.0000 C   0  0  0  0  0  0  0  0  0  0  0  0
    2.6378    0.1271    0.0000 C   0  0  0  0  0  0  0  0  0  0  0  0
    3.3523   -0.2854    0.0000 C   0  0  0  0  0  0  0  0  0  0  0  0
    3.3523   -1.1104    0.0000 C   0  0  0  0  0  0  0  0  0  0  0  0
    2.6378   -1.5229    0.0000 C   0  0  0  0  0  0  0  0  0  0  0  0
    1.9233   -1.1104    0.0000 C   0  0  0  0  0  0  0  0  0  0  0  0
  1  2  1  0  0  0  0
  2  3  1  0  0  0  0
  3  4  1  0  0  0  0
  4  5  1  0  0  0  0
  1  5  1  0  0  0  0
  3  6  1  0  0  0  0
  6  7  1  0  0  0  0
  7  8  2  0  0  0  0
  8  9  1  0  0  0  0
  9 10  2  0  0  0  0
 10 11  1  0  0  0  0
 11 12  2  0  0  0  0
 12 13  1  0  0  0  0
 13 14  2  0  0  0  0
  6 14  1  0  0  0  0
  9 14  1  0  0  0  0
M  END
>  <Catalog ID>
Z975916002

>  <PlateID>
1198308-R-SPFL-01

>  <Well>
E04

>  <MW (desalted)>
187.241

>  <ClogP>
1.213

>  <HBD>
1

>  <TPSA>
29.850

>  <RotBonds>
1

$$$$

            

 11 11  0  0  0  0            999 V2000
   -0.1467    2.3518    0.0000 C   0  0  0  0  0  0  0  0  0  0  0  0
    0.5678    1.9393    0.0000 C   0  0  0  0  0  0  0  0  0  0  0  0
    1.2822    2.3518    0.0000 C   0  0  0  0  0  0  0  0  0  0  0  0
    0.5678    1.1143    0.0000 N   0  0  0  0  0  0  0  0  0  0  0  0
    1.2352    0.6294    0.0000 C   0  0  0  0  0  0  0  0  0  0  0  0
    0.9803   -0.1553    0.0000 C   0  0  0  0  0  0  0  0  0  0  0  0
    0.1553   -0.1553    0.0000 C   0  0  0  0  0  0  0  0  0  0  0  0
   -0.0997    0.6294    0.0000 N   0  0  0  0  0  0  0  0  0  0  0  0
    1.4652   -0.8227    0.0000 C   0  0  0  0  0  0  0  0  0  0  0  0
    2.2857   -0.7365    0.0000 O   0  0  0  0  0  0  0  0  0  0  0  0
    1.1296   -1.5764    0.0000 O   0  0  0  0  0  0  0  0  0  0  0  0
  1  2  1  0  0  0  0
  2  3  1  0  0  0  0
  2  4  1  0  0  0  0
  4  5  1  0  0  0  0
  5  6  2  0  0  0  0
  6  7  1  0  0  0  0
  7  8  2  0  0  0  0
  4  8  1  0  0  0  0
  6  9  1  0  0  0  0
  9 10  2  0  0  0  0
  9 11  1  0  0  0  0
M  END
>  <Catalog ID>
Z337709432

>  <PlateID>
1198308-R-SPFL-01

>  <Well>
E05

>  <MW (desalted)>
154.167

>  <ClogP>
1.099

>  <HBD>
1

>  <TPSA>
55.120

>  <RotBonds>
2

$$$$

            

 13 13  0  0  0  0            999 V2000
    0.0000    2.4750    0.0000 O   0  0  0  0  0  0  0  0  0  0  0  0
    0.7145    2.0625    0.0000 C   0  0  0  0  0  0  0  0  0  0  0  0
    1.4289    2.4750    0.0000 O   0  0  0  0  0  0  0  0  0  0  0  0
    0.7145    1.2375    0.0000 C   0  0  0  0  0  0  0  0  0  0  0  0
    1.4289    0.8250    0.0000 C   0  0  0  0  0  0  0  0  0  0  0  0
    1.4289   -0.0000    0.0000 C   0  0  0  0  0  0  0  0  0  0  0  0
    0.7145   -0.4125    0.0000 C   0  0  0  0  0  0  0  0  0  0  0  0
    0.0000    0.0000    0.0000 N   0  0  0  0  0  0  0  0  0  0  0  0
    0.0000    0.8250    0.0000 C   0  0  0  0  0  0  0  0  0  0  0  0
   -0.7145    1.2375    0.0000 C   0  0  0  0  0  0  0  0  0  0  0  0
   -1.4289    1.6500    0.0000 F   0  0  0  0  0  0  0  0  0  0  0  0
   -0.3020    1.9520    0.0000 F   0  0  0  0  0  0  0  0  0  0  0  0
   -1.1270    0.5230    0.0000 F   0  0  0  0  0  0  0  0  0  0  0  0
  1  2  1  0  0  0  0
  2  3  2  0  0  0  0
  2  4  1  0  0  0  0
  4  5  2  0  0  0  0
  5  6  1  0  0  0  0
  6  7  2  0  0  0  0
  7  8  1  0  0  0  0
  8  9  2  0  0  0  0
  4  9  1  0  0  0  0
  9 10  1  0  0  0  0
 10 11  1  0  0  0  0
 10 12  1  0  0  0  0
 10 13  1  0  0  0  0
M  END
>  <Catalog ID>
Z255150388

>  <PlateID>
1198308-R-SPFL-01

>  <Well>
E06

>  <MW (desalted)>
191.107

>  <ClogP>
0.924

>  <HBD>
1

>  <TPSA>
50.190

>  <RotBonds>
2

$$$$

            

 11 12  0  0  0  0            999 V2000
    1.4289   -2.4750    0.0000 Cl  0  0  0  0  0  0  0  0  0  0  0  0
    1.4289   -1.6500    0.0000 C   0  0  0  0  0  0  0  0  0  0  0  0
    0.7145   -1.2375    0.0000 C   0  0  0  0  0  0  0  0  0  0  0  0
    0.7145   -0.4125    0.0000 C   0  0  0  0  0  0  0  0  0  0  0  0
    1.4289    0.0000    0.0000 C   0  0  0  0  0  0  0  0  0  0  0  0
    2.1434   -0.4125    0.0000 C   0  0  0  0  0  0  0  0  0  0  0  0
    2.8579    0.0000    0.0000 N   0  0  0  0  0  0  0  0  0  0  0  0
    3.5724   -0.4125    0.0000 C   0  0  0  0  0  0  0  0  0  0  0  0
    3.5724   -1.2375    0.0000 C   0  0  0  0  0  0  0  0  0  0  0  0
    2.8579   -1.6500    0.0000 O   0  0  0  0  0  0  0  0  0  0  0  0
    2.1434   -1.2375    0.0000 C   0  0  0  0  0  0  0  0  0  0  0  0
  1  2  1  0  0  0  0
  2  3  2  0  0  0  0
  3  4  1  0  0  0  0
  4  5  2  0  0  0  0
  5  6  1  0  0  0  0
  6  7  1  0  0  0  0
  7  8  1  0  0  0  0
  8  9  1  0  0  0  0
  9 10  1  0  0  0  0
 10 11  1  0  0  0  0
  2 11  1  0  0  0  0
  6 11  2  0  0  0  0
M  END
>  <Catalog ID>
Z1255446801

>  <PlateID>
1198308-R-SPFL-01

>  <Well>
E07

>  <MW (desalted)>
169.608

>  <ClogP>
2.598

>  <HBD>
1

>  <TPSA>
21.260

>  <RotBonds>
0

$$$$

            

 11 12  0  0  0  0            999 V2000
    0.3020   -2.5070    0.0000 C   0  0  0  0  0  0  0  0  0  0  0  0
    0.0470   -1.7224    0.0000 N   0  0  0  0  0  0  0  0  0  0  0  0
    0.7145   -1.2375    0.0000 C   0  0  0  0  0  0  0  0  0  0  0  0
    1.3819   -1.7224    0.0000 N   0  0  0  0  0  0  0  0  0  0  0  0
    1.1270   -2.5070    0.0000 N   0  0  0  0  0  0  0  0  0  0  0  0
    0.7145   -0.4125    0.0000 C   0  0  0  0  0  0  0  0  0  0  0  0
    0.0000    0.0000    0.0000 C   0  0  0  0  0  0  0  0  0  0  0  0
    0.0000    0.8250    0.0000 C   0  0  0  0  0  0  0  0  0  0  0  0
    0.7145    1.2375    0.0000 C   0  0  0  0  0  0  0  0  0  0  0  0
    1.4289    0.8250    0.0000 C   0  0  0  0  0  0  0  0  0  0  0  0
    1.4289    0.0000    0.0000 C   0  0  0  0  0  0  0  0  0  0  0  0
  1  2  2  0  0  0  0
  2  3  1  0  0  0  0
  3  4  2  0  0  0  0
  4  5  1  0  0  0  0
  1  5  1  0  0  0  0
  3  6  1  0  0  0  0
  6  7  2  0  0  0  0
  7  8  1  0  0  0  0
  8  9  2  0  0  0  0
  9 10  1  0  0  0  0
 10 11  2  0  0  0  0
  6 11  1  0  0  0  0
M  END
>  <Catalog ID>
Z804949032

>  <PlateID>
1198308-R-SPFL-01

>  <Well>
E08

>  <MW (desalted)>
145.161

>  <ClogP>
1.817

>  <HBD>
1

>  <TPSA>
41.570

>  <RotBonds>
1

$$$$

            

 12 10  0  0  0  0            999 V2000
    0.0000    0.0000    0.0000 Cl  0  0  0  0  0  0  0  0  0  0  0  0
    2.0036    0.0000    0.0000 Cl  0  0  0  0  0  0  0  0  0  0  0  0
   -0.9760   -1.6500    0.0000 C   0  0  0  0  0  0  0  0  0  0  0  0
   -0.2615   -2.0625    0.0000 C   0  0  0  0  0  0  0  0  0  0  0  0
    0.4529   -1.6500    0.0000 C   0  0  0  0  0  0  0  0  0  0  0  0
   -0.2615   -2.8875    0.0000 N   0  0  0  0  0  0  0  0  0  0  0  0
    0.4059   -3.3724    0.0000 C   0  0  0  0  0  0  0  0  0  0  0  0
    0.1510   -4.1570    0.0000 C   0  0  0  0  0  0  0  0  0  0  0  0
    0.6359   -4.8245    0.0000 C   0  0  0  0  0  0  0  0  0  0  0  0
    1.4564   -4.7382    0.0000 N   0  0  0  0  0  0  0  0  0  0  0  0
   -0.6740   -4.1570    0.0000 N   0  0  0  0  0  0  0  0  0  0  0  0
   -0.9290   -3.3724    0.0000 N   0  0  0  0  0  0  0  0  0  0  0  0
  3  4  1  0  0  0  0
  4  5  1  0  0  0  0
  4  6  1  0  0  0  0
  6  7  1  0  0  0  0
  7  8  2  0  0  0  0
  8  9  1  0  0  0  0
  9 10  1  0  0  0  0
  8 11  1  0  0  0  0
 11 12  2  0  0  0  0
  6 12  1  0  0  0  0
M  END
>  <Catalog ID>
Z2197092492

>  <PlateID>
1198308-R-SPFL-01

>  <Well>
E09

>  <MW (desalted)>
140.186

>  <ClogP>
-0.740

>  <HBD>
1

>  <TPSA>
56.730

>  <RotBonds>
2

$$$$

            

 12 13  0  0  0  0            999 V2000
    0.7145   -0.4125    0.0000 O   0  0  0  0  0  0  0  0  0  0  0  0
    0.7145   -1.2375    0.0000 C   0  0  0  0  0  0  0  0  0  0  0  0
    1.3819   -1.7224    0.0000 C   0  0  0  0  0  0  0  0  0  0  0  0
    1.1270   -2.5070    0.0000 C   0  0  0  0  0  0  0  0  0  0  0  0
    0.3020   -2.5070    0.0000 N   0  0  0  0  0  0  0  0  0  0  0  0
    0.0470   -1.7224    0.0000 N   0  0  0  0  0  0  0  0  0  0  0  0
   -0.1830   -3.1745    0.0000 C   0  0  0  0  0  0  0  0  0  0  0  0
    0.1526   -3.9282    0.0000 C   0  0  0  0  0  0  0  0  0  0  0  0
   -0.3323   -4.5956    0.0000 C   0  0  0  0  0  0  0  0  0  0  0  0
   -1.1528   -4.5094    0.0000 C   0  0  0  0  0  0  0  0  0  0  0  0
   -1.4884   -3.7557    0.0000 C   0  0  0  0  0  0  0  0  0  0  0  0
   -1.0034   -3.0882    0.0000 C   0  0  0  0  0  0  0  0  0  0  0  0
  1  2  2  0  0  0  0
  2  3  1  0  0  0  0
  3  4  1  0  0  0  0
  4  5  1  0  0  0  0
  5  6  1  0  0  0  0
  2  6  1  0  0  0  0
  5  7  1  0  0  0  0
  7  8  2  0  0  0  0
  8  9  1  0  0  0  0
  9 10  2  0  0  0  0
 10 11  1  0  0  0  0
 11 12  2  0  0  0  0
  7 12  1  0  0  0  0
M  END
>  <Catalog ID>
Z104472448

>  <PlateID>
1198308-R-SPFL-01

>  <Well>
E10

>  <MW (desalted)>
162.189

>  <ClogP>
0.893

>  <HBD>
1

>  <TPSA>
32.340

>  <RotBonds>
1

$$$$

            

 12 13  0  0  0  0            999 V2000
    0.7145   -0.4125    0.0000 C   0  0  0  0  0  0  0  0  0  0  0  0
    0.7145   -1.2375    0.0000 N   0  0  0  0  0  0  0  0  0  0  0  0
    1.3819   -1.7224    0.0000 N   0  0  0  0  0  0  0  0  0  0  0  0
    1.1270   -2.5070    0.0000 C   0  0  0  0  0  0  0  0  0  0  0  0
    0.3020   -2.5070    0.0000 C   0  0  0  0  0  0  0  0  0  0  0  0
    0.0470   -1.7224    0.0000 C   0  0  0  0  0  0  0  0  0  0  0  0
   -0.7376   -1.4675    0.0000 C   0  0  0  0  0  0  0  0  0  0  0  0
   -1.3507   -2.0195    0.0000 C   0  0  0  0  0  0  0  0  0  0  0  0
   -2.1353   -1.7646    0.0000 C   0  0  0  0  0  0  0  0  0  0  0  0
   -2.3068   -0.9576    0.0000 N   0  0  0  0  0  0  0  0  0  0  0  0
   -1.6937   -0.4056    0.0000 C   0  0  0  0  0  0  0  0  0  0  0  0
   -0.9091   -0.6605    0.0000 C   0  0  0  0  0  0  0  0  0  0  0  0
  1  2  1  0  0  0  0
  2  3  1  0  0  0  0
  3  4  2  0  0  0  0
  4  5  1  0  0  0  0
  5  6  2  0  0  0  0
  2  6  1  0  0  0  0
  6  7  1  0  0  0  0
  7  8  1  0  0  0  0
  8  9  1  0  0  0  0
  9 10  1  0  0  0  0
 10 11  1  0  0  0  0
 11 12  1  0  0  0  0
  7 12  1  0  0  0  0
M  END
>  <Catalog ID>
Z988984026

>  <PlateID>
1198308-R-SPFL-01

>  <Well>
E11

>  <MW (desalted)>
165.236

>  <ClogP>
0.228

>  <HBD>
1

>  <TPSA>
29.850

>  <RotBonds>
1

$$$$

            

 13 14  0  0  0  0            999 V2000
   -0.1712   -0.6979    0.0000 C   0  0  0  0  0  0  0  0  0  0  0  0
    0.6538   -0.6979    0.0000 C   0  0  0  0  0  0  0  0  0  0  0  0
    1.1387   -0.0305    0.0000 N   0  0  0  0  0  0  0  0  0  0  0  0
    1.9233   -0.2854    0.0000 C   0  0  0  0  0  0  0  0  0  0  0  0
    2.6378    0.1271    0.0000 C   0  0  0  0  0  0  0  0  0  0  0  0
    3.3523   -0.2854    0.0000 C   0  0  0  0  0  0  0  0  0  0  0  0
    3.3523   -1.1104    0.0000 C   0  0  0  0  0  0  0  0  0  0  0  0
    2.6378   -1.5229    0.0000 C   0  0  0  0  0  0  0  0  0  0  0  0
    1.9233   -1.1104    0.0000 C   0  0  0  0  0  0  0  0  0  0  0  0
    1.1387   -1.3654    0.0000 N   0  0  0  0  0  0  0  0  0  0  0  0
    0.8838   -2.1500    0.0000 C   0  0  0  0  0  0  0  0  0  0  0  0
    0.0768   -2.3215    0.0000 C   0  0  0  0  0  0  0  0  0  0  0  0
   -0.1781   -3.1062    0.0000 O   0  0  0  0  0  0  0  0  0  0  0  0
  1  2  1  0  0  0  0
  2  3  2  0  0  0  0
  3  4  1  0  0  0  0
  4  5  2  0  0  0  0
  5  6  1  0  0  0  0
  6  7  2  0  0  0  0
  7  8  1  0  0  0  0
  8  9  2  0  0  0  0
  4  9  1  0  0  0  0
  9 10  1  0  0  0  0
  2 10  1  0  0  0  0
 10 11  1  0  0  0  0
 11 12  1  0  0  0  0
 12 13  1  0  0  0  0
M  END
>  <Catalog ID>
Z56989568

>  <PlateID>
1198308-R-SPFL-01

>  <Well>
F02

>  <MW (desalted)>
176.215

>  <ClogP>
1.020

>  <HBD>
1

>  <TPSA>
38.050

>  <RotBonds>
2

$$$$

            

 10 11  0  0  0  0            999 V2000
    0.0702   -2.3174    0.0000 O   0  0  0  0  0  0  0  0  0  0  0  0
    0.7846   -1.9049    0.0000 C   0  0  0  0  0  0  0  0  0  0  0  0
    0.7846   -1.0799    0.0000 C   0  0  0  0  0  0  0  0  0  0  0  0
   -0.0000   -1.3349    0.0000 C   0  0  0  0  0  0  0  0  0  0  0  0
   -0.4849   -0.6674    0.0000 C   0  0  0  0  0  0  0  0  0  0  0  0
   -0.0000   -0.0000    0.0000 C   0  0  0  0  0  0  0  0  0  0  0  0
    0.7846   -0.2549    0.0000 N   0  0  0  0  0  0  0  0  0  0  0  0
    1.5692   -0.0000    0.0000 C   0  0  0  0  0  0  0  0  0  0  0  0
    2.0542   -0.6674    0.0000 C   0  0  0  0  0  0  0  0  0  0  0  0
    1.5692   -1.3349    0.0000 C   0  0  0  0  0  0  0  0  0  0  0  0
  1  2  1  0  0  0  0
  2  3  1  0  0  0  0
  3  4  1  0  0  0  0
  4  5  1  0  0  0  0
  5  6  1  0  0  0  0
  6  7  1  0  0  0  0
  3  7  1  0  0  0  0
  7  8  1  0  0  0  0
  8  9  1  0  0  0  0
  9 10  1  0  0  0  0
  3 10  1  0  0  0  0
M  END
>  <Catalog ID>
Z1504677174

>  <PlateID>
1198308-R-SPFL-01

>  <Well>
F03

>  <MW (desalted)>
141.211

>  <ClogP>
0.460

>  <HBD>
1

>  <TPSA>
23.470

>  <RotBonds>
1

$$$$

            

 12 13  0  0  0  0            999 V2000
    0.7145   -0.4125    0.0000 N   0  0  0  0  0  0  0  0  0  0  0  0
    0.7145   -1.2375    0.0000 C   0  0  0  0  0  0  0  0  0  0  0  0
    1.3819   -1.7224    0.0000 C   0  0  0  0  0  0  0  0  0  0  0  0
    1.1270   -2.5070    0.0000 C   0  0  0  0  0  0  0  0  0  0  0  0
    0.3020   -2.5070    0.0000 N   0  0  0  0  0  0  0  0  0  0  0  0
    0.0470   -1.7224    0.0000 N   0  0  0  0  0  0  0  0  0  0  0  0
   -0.7376   -1.4675    0.0000 C   0  0  0  0  0  0  0  0  0  0  0  0
   -1.3507   -2.0195    0.0000 C   0  0  0  0  0  0  0  0  0  0  0  0
   -2.1353   -1.7646    0.0000 C   0  0  0  0  0  0  0  0  0  0  0  0
   -2.3068   -0.9576    0.0000 C   0  0  0  0  0  0  0  0  0  0  0  0
   -1.6937   -0.4056    0.0000 C   0  0  0  0  0  0  0  0  0  0  0  0
   -0.9091   -0.6605    0.0000 C   0  0  0  0  0  0  0  0  0  0  0  0
  1  2  1  0  0  0  0
  2  3  2  0  0  0  0
  3  4  1  0  0  0  0
  4  5  2  0  0  0  0
  5  6  1  0  0  0  0
  2  6  1  0  0  0  0
  6  7  1  0  0  0  0
  7  8  1  0  0  0  0
  8  9  1  0  0  0  0
  9 10  1  0  0  0  0
 10 11  1  0  0  0  0
 11 12  1  0  0  0  0
  7 12  1  0  0  0  0
M  END
>  <Catalog ID>
Z55928890

>  <PlateID>
1198308-R-SPFL-01

>  <Well>
F04

>  <MW (desalted)>
165.236

>  <ClogP>
1.503

>  <HBD>
1

>  <TPSA>
43.840

>  <RotBonds>
1

$$$$

            

 11 12  0  0  0  0            999 V2000
    0.8838   -2.1500    0.0000 C   0  0  0  0  0  0  0  0  0  0  0  0
    1.1387   -1.3654    0.0000 N   0  0  0  0  0  0  0  0  0  0  0  0
    0.6538   -0.6979    0.0000 C   0  0  0  0  0  0  0  0  0  0  0  0
   -0.1712   -0.6979    0.0000 N   0  0  0  0  0  0  0  0  0  0  0  0
    1.1387   -0.0305    0.0000 N   0  0  0  0  0  0  0  0  0  0  0  0
    1.9233   -0.2854    0.0000 C   0  0  0  0  0  0  0  0  0  0  0  0
    2.6378    0.1271    0.0000 C   0  0  0  0  0  0  0  0  0  0  0  0
    3.3523   -0.2854    0.0000 N   0  0  0  0  0  0  0  0  0  0  0  0
    3.3523   -1.1104    0.0000 C   0  0  0  0  0  0  0  0  0  0  0  0
    2.6378   -1.5229    0.0000 C   0  0  0  0  0  0  0  0  0  0  0  0
    1.9233   -1.1104    0.0000 C   0  0  0  0  0  0  0  0  0  0  0  0
  1  2  1  0  0  0  0
  2  3  1  0  0  0  0
  3  4  1  0  0  0  0
  3  5  2  0  0  0  0
  5  6  1  0  0  0  0
  6  7  2  0  0  0  0
  7  8  1  0  0  0  0
  8  9  2  0  0  0  0
  9 10  1  0  0  0  0
 10 11  2  0  0  0  0
  2 11  1  0  0  0  0
  6 11  1  0  0  0  0
M  END
>  <Catalog ID>
Z1267876166

>  <PlateID>
1198308-R-SPFL-01

>  <Well>
F05

>  <MW (desalted)>
148.165

>  <ClogP>
0.404

>  <HBD>
1

>  <TPSA>
56.730

>  <RotBonds>
0

$$$$

            

 13 13  0  0  0  0            999 V2000
    2.1434    2.0625    0.0000 N   0  0  0  0  0  0  0  0  0  0  0  0
    1.4289    2.4750    0.0000 C   0  0  0  0  0  0  0  0  0  0  0  0
    0.7145    2.0625    0.0000 C   0  0  0  0  0  0  0  0  0  0  0  0
    0.7145    1.2375    0.0000 C   0  0  0  0  0  0  0  0  0  0  0  0
    1.4289    0.8250    0.0000 C   0  0  0  0  0  0  0  0  0  0  0  0
    1.4289   -0.0000    0.0000 C   0  0  0  0  0  0  0  0  0  0  0  0
    0.7145   -0.4125    0.0000 C   0  0  0  0  0  0  0  0  0  0  0  0
    0.0000    0.0000    0.0000 C   0  0  0  0  0  0  0  0  0  0  0  0
    0.0000    0.8250    0.0000 N   0  0  0  0  0  0  0  0  0  0  0  0
    1.4289    3.3000    0.0000 C   0  0  0  0  0  0  0  0  0  0  0  0
    1.4289    4.1250    0.0000 F   0  0  0  0  0  0  0  0  0  0  0  0
    2.2539    3.3000    0.0000 F   0  0  0  0  0  0  0  0  0  0  0  0
    0.6039    3.3000    0.0000 F   0  0  0  0  0  0  0  0  0  0  0  0
  1  2  1  0  0  0  0
  2  3  1  0  0  0  0
  3  4  1  0  0  0  0
  4  5  2  0  0  0  0
  5  6  1  0  0  0  0
  6  7  2  0  0  0  0
  7  8  1  0  0  0  0
  8  9  2  0  0  0  0
  4  9  1  0  0  0  0
  2 10  1  0  0  0  0
 10 11  1  0  0  0  0
 10 12  1  0  0  0  0
 10 13  1  0  0  0  0
M  END
>  <Catalog ID>
Z381268456

>  <PlateID>
1198308-R-SPFL-01

>  <Well>
F06

>  <MW (desalted)>
190.166

>  <ClogP>
0.509

>  <HBD>
1

>  <TPSA>
38.910

>  <RotBonds>
3

$$$$

            

 12 12  0  0  0  0            999 V2000
    0.7145    2.0625    0.0000 O   0  0  0  0  0  0  0  0  0  0  0  0
    0.7145    1.2375    0.0000 C   0  0  0  0  0  0  0  0  0  0  0  0
    1.4289    0.8250    0.0000 C   0  0  0  0  0  0  0  0  0  0  0  0
    1.4289   -0.0000    0.0000 C   0  0  0  0  0  0  0  0  0  0  0  0
    0.7145   -0.4125    0.0000 N   0  0  0  0  0  0  0  0  0  0  0  0
    0.7145   -1.2375    0.0000 C   0  0  0  0  0  0  0  0  0  0  0  0
    1.4289   -1.6500    0.0000 C   0  0  0  0  0  0  0  0  0  0  0  0
    2.1434   -2.0625    0.0000 F   0  0  0  0  0  0  0  0  0  0  0  0
    1.0164   -2.3645    0.0000 F   0  0  0  0  0  0  0  0  0  0  0  0
    1.8414   -0.9355    0.0000 F   0  0  0  0  0  0  0  0  0  0  0  0
    0.0000    0.0000    0.0000 C   0  0  0  0  0  0  0  0  0  0  0  0
    0.0000    0.8250    0.0000 C   0  0  0  0  0  0  0  0  0  0  0  0
  1  2  1  0  0  0  0
  2  3  1  0  0  0  0
  3  4  1  0  0  0  0
  4  5  1  0  0  0  0
  5  6  1  0  0  0  0
  6  7  1  0  0  0  0
  7  8  1  0  0  0  0
  7  9  1  0  0  0  0
  7 10  1  0  0  0  0
  5 11  1  0  0  0  0
 11 12  1  0  0  0  0
  2 12  1  0  0  0  0
M  END
>  <Catalog ID>
Z324648396

>  <PlateID>
1198308-R-SPFL-01

>  <Well>
F07

>  <MW (desalted)>
183.171

>  <ClogP>
-0.083

>  <HBD>
1

>  <TPSA>
23.470

>  <RotBonds>
2

$$$$

            

 13 14  0  0  0  0            999 V2000
   -0.1781   -3.1062    0.0000 O   0  0  0  0  0  0  0  0  0  0  0  0
    0.0768   -2.3215    0.0000 C   0  0  0  0  0  0  0  0  0  0  0  0
   -0.4752   -1.7084    0.0000 O   0  0  0  0  0  0  0  0  0  0  0  0
    0.8838   -2.1500    0.0000 C   0  0  0  0  0  0  0  0  0  0  0  0
    1.1387   -1.3654    0.0000 C   0  0  0  0  0  0  0  0  0  0  0  0
    0.6538   -0.6979    0.0000 C   0  0  0  0  0  0  0  0  0  0  0  0
    1.1387   -0.0305    0.0000 O   0  0  0  0  0  0  0  0  0  0  0  0
    1.9233   -0.2854    0.0000 C   0  0  0  0  0  0  0  0  0  0  0  0
    2.6378    0.1271    0.0000 C   0  0  0  0  0  0  0  0  0  0  0  0
    3.3523   -0.2854    0.0000 C   0  0  0  0  0  0  0  0  0  0  0  0
    3.3523   -1.1104    0.0000 C   0  0  0  0  0  0  0  0  0  0  0  0
    2.6378   -1.5229    0.0000 C   0  0  0  0  0  0  0  0  0  0  0  0
    1.9233   -1.1104    0.0000 C   0  0  0  0  0  0  0  0  0  0  0  0
  1  2  1  0  0  0  0
  2  3  2  0  0  0  0
  2  4  1  0  0  0  0
  4  5  1  0  0  0  0
  5  6  2  0  0  0  0
  6  7  1  0  0  0  0
  7  8  1  0  0  0  0
  8  9  2  0  0  0  0
  9 10  1  0  0  0  0
 10 11  2  0  0  0  0
 11 12  1  0  0  0  0
 12 13  2  0  0  0  0
  5 13  1  0  0  0  0
  8 13  1  0  0  0  0
M  END
>  <Catalog ID>
Z119989454

>  <PlateID>
1198308-R-SPFL-01

>  <Well>
F08

>  <MW (desalted)>
176.169

>  <ClogP>
1.974

>  <HBD>
1

>  <TPSA>
50.440

>  <RotBonds>
2

$$$$

            

 14 15  0  0  0  0            999 V2000
    0.7145   -3.7125    0.0000 O   0  0  0  0  0  0  0  0  0  0  0  0
    0.7145   -2.8875    0.0000 C   0  0  0  0  0  0  0  0  0  0  0  0
    0.0000   -2.4750    0.0000 O   0  0  0  0  0  0  0  0  0  0  0  0
    1.4289   -2.4750    0.0000 C   0  0  0  0  0  0  0  0  0  0  0  0
    1.4289   -1.6500    0.0000 C   0  0  0  0  0  0  0  0  0  0  0  0
    0.7145   -1.2375    0.0000 O   0  0  0  0  0  0  0  0  0  0  0  0
    0.7145   -0.4125    0.0000 C   0  0  0  0  0  0  0  0  0  0  0  0
    1.4289    0.0000    0.0000 C   0  0  0  0  0  0  0  0  0  0  0  0
    2.1434   -0.4125    0.0000 C   0  0  0  0  0  0  0  0  0  0  0  0
    2.8579    0.0000    0.0000 C   0  0  0  0  0  0  0  0  0  0  0  0
    3.5724   -0.4125    0.0000 C   0  0  0  0  0  0  0  0  0  0  0  0
    3.5724   -1.2375    0.0000 C   0  0  0  0  0  0  0  0  0  0  0  0
    2.8579   -1.6500    0.0000 C   0  0  0  0  0  0  0  0  0  0  0  0
    2.1434   -1.2375    0.0000 C   0  0  0  0  0  0  0  0  0  0  0  0
  1  2  1  0  0  0  0
  2  3  2  0  0  0  0
  2  4  1  0  0  0  0
  4  5  1  0  0  0  0
  5  6  1  0  0  0  0
  6  7  1  0  0  0  0
  7  8  1  0  0  0  0
  8  9  1  0  0  0  0
  9 10  2  0  0  0  0
 10 11  1  0  0  0  0
 11 12  2  0  0  0  0
 12 13  1  0  0  0  0
 13 14  2  0  0  0  0
  5 14  1  0  0  0  0
  9 14  1  0  0  0  0
M  END
>  <Catalog ID>
Z1098340600

>  <PlateID>
1198308-R-SPFL-01

>  <Well>
F09

>  <MW (desalted)>
192.211

>  <ClogP>
1.366

>  <HBD>
1

>  <TPSA>
46.530

>  <RotBonds>
2

$$$$

            

 11 11  0  0  0  0            999 V2000
    0.0000    3.3000    0.0000 O   0  0  0  0  0  0  0  0  0  0  0  0
    0.0000    2.4750    0.0000 C   0  0  0  0  0  0  0  0  0  0  0  0
   -0.7145    2.0625    0.0000 O   0  0  0  0  0  0  0  0  0  0  0  0
    0.7145    2.0625    0.0000 C   0  0  0  0  0  0  0  0  0  0  0  0
    0.7145    1.2375    0.0000 C   0  0  0  0  0  0  0  0  0  0  0  0
    1.4289    0.8250    0.0000 C   0  0  0  0  0  0  0  0  0  0  0  0
    1.4289   -0.0000    0.0000 C   0  0  0  0  0  0  0  0  0  0  0  0
    0.7145   -0.4125    0.0000 C   0  0  0  0  0  0  0  0  0  0  0  0
    0.0000    0.0000    0.0000 C   0  0  0  0  0  0  0  0  0  0  0  0
   -0.7145   -0.4125    0.0000 F   0  0  0  0  0  0  0  0  0  0  0  0
    0.0000    0.8250    0.0000 C   0  0  0  0  0  0  0  0  0  0  0  0
  1  2  1  0  0  0  0
  2  3  2  0  0  0  0
  2  4  1  0  0  0  0
  4  5  1  0  0  0  0
  5  6  2  0  0  0  0
  6  7  1  0  0  0  0
  7  8  2  0  0  0  0
  8  9  1  0  0  0  0
  9 10  1  0  0  0  0
  9 11  2  0  0  0  0
  5 11  1  0  0  0  0
M  END
>  <Catalog ID>
Z104486030

>  <PlateID>
1198308-R-SPFL-01

>  <Well>
F10

>  <MW (desalted)>
154.138

>  <ClogP>
1.557

>  <HBD>
1

>  <TPSA>
37.300

>  <RotBonds>
2

$$$$

            

 15 16  0  0  0  0            999 V2000
   -0.0000    8.0036    0.0000 O   0  0  0  0  0  0  0  0  0  0  0  0
   -0.0000    7.1786    0.0000 C   0  0  0  0  0  0  0  0  0  0  0  0
   -0.7145    6.7661    0.0000 O   0  0  0  0  0  0  0  0  0  0  0  0
    0.7145    6.7661    0.0000 C   0  0  0  0  0  0  0  0  0  0  0  0
    0.7145    5.9411    0.0000 C   0  0  0  0  0  0  0  0  0  0  0  0
    1.4289    5.5286    0.0000 C   0  0  0  0  0  0  0  0  0  0  0  0
    1.4289    4.7036    0.0000 C   0  0  0  0  0  0  0  0  0  0  0  0
    0.7145    4.2911    0.0000 C   0  0  0  0  0  0  0  0  0  0  0  0
    0.0000    4.7036    0.0000 C   0  0  0  0  0  0  0  0  0  0  0  0
    0.0000    5.5286    0.0000 C   0  0  0  0  0  0  0  0  0  0  0  0
    0.7145    3.4661    0.0000 N   0  0  0  0  0  0  0  0  0  0  0  0
    1.3819    2.9812    0.0000 C   0  0  0  0  0  0  0  0  0  0  0  0
    1.1270    2.1965    0.0000 C   0  0  0  0  0  0  0  0  0  0  0  0
    0.3020    2.1965    0.0000 C   0  0  0  0  0  0  0  0  0  0  0  0
    0.0470    2.9812    0.0000 N   0  0  0  0  0  0  0  0  0  0  0  0
  1  2  1  0  0  0  0
  2  3  2  0  0  0  0
  2  4  1  0  0  0  0
  4  5  1  0  0  0  0
  5  6  2  0  0  0  0
  6  7  1  0  0  0  0
  7  8  2  0  0  0  0
  8  9  1  0  0  0  0
  9 10  2  0  0  0  0
  5 10  1  0  0  0  0
  8 11  1  0  0  0  0
 11 12  1  0  0  0  0
 12 13  2  0  0  0  0
 13 14  1  0  0  0  0
 14 15  2  0  0  0  0
 11 15  1  0  0  0  0
M  END
>  <Catalog ID>
Z415627488

>  <PlateID>
1198308-R-SPFL-01

>  <Well>
F11

>  <MW (desalted)>
202.209

>  <ClogP>
1.468

>  <HBD>
1

>  <TPSA>
55.120

>  <RotBonds>
3

$$$$

            

 11 11  0  0  0  0            999 V2000
   -0.1467    2.3518    0.0000 O   0  0  0  0  0  0  0  0  0  0  0  0
    0.5678    1.9393    0.0000 C   0  0  0  0  0  0  0  0  0  0  0  0
    1.2822    2.3518    0.0000 O   0  0  0  0  0  0  0  0  0  0  0  0
    0.5678    1.1143    0.0000 C   0  0  0  0  0  0  0  0  0  0  0  0
    1.2352    0.6294    0.0000 C   0  0  0  0  0  0  0  0  0  0  0  0
    0.9803   -0.1553    0.0000 C   0  0  0  0  0  0  0  0  0  0  0  0
    0.1553   -0.1553    0.0000 O   0  0  0  0  0  0  0  0  0  0  0  0
   -0.0997    0.6294    0.0000 N   0  0  0  0  0  0  0  0  0  0  0  0
    1.4652   -0.8227    0.0000 C   0  0  0  0  0  0  0  0  0  0  0  0
    2.2857   -0.7365    0.0000 F   0  0  0  0  0  0  0  0  0  0  0  0
    1.1296   -1.5764    0.0000 F   0  0  0  0  0  0  0  0  0  0  0  0
  1  2  1  0  0  0  0
  2  3  2  0  0  0  0
  2  4  1  0  0  0  0
  4  5  1  0  0  0  0
  5  6  2  0  0  0  0
  6  7  1  0  0  0  0
  7  8  1  0  0  0  0
  4  8  2  0  0  0  0
  6  9  1  0  0  0  0
  9 10  1  0  0  0  0
  9 11  1  0  0  0  0
M  END
>  <Catalog ID>
Z2583036316

>  <PlateID>
1198308-R-SPFL-01

>  <Well>
G02

>  <MW (desalted)>
163.079

>  <ClogP>
0.542

>  <HBD>
1

>  <TPSA>
63.330

>  <RotBonds>
2

$$$$

            

 10 10  0  0  0  0            999 V2000
    0.5678    2.7643    0.0000 C   0  0  0  0  0  0  0  0  0  0  0  0
    0.5678    1.9393    0.0000 C   0  0  0  0  0  0  0  0  0  0  0  0
   -0.2572    1.9393    0.0000 F   0  0  0  0  0  0  0  0  0  0  0  0
    1.3928    1.9393    0.0000 F   0  0  0  0  0  0  0  0  0  0  0  0
    0.5678    1.1143    0.0000 C   0  0  0  0  0  0  0  0  0  0  0  0
    1.2352    0.6294    0.0000 C   0  0  0  0  0  0  0  0  0  0  0  0
    0.9803   -0.1553    0.0000 C   0  0  0  0  0  0  0  0  0  0  0  0
    1.4652   -0.8227    0.0000 N   0  0  0  0  0  0  0  0  0  0  0  0
    0.1553   -0.1553    0.0000 O   0  0  0  0  0  0  0  0  0  0  0  0
   -0.0997    0.6294    0.0000 N   0  0  0  0  0  0  0  0  0  0  0  0
  1  2  1  0  0  0  0
  2  3  1  0  0  0  0
  2  4  1  0  0  0  0
  2  5  1  0  0  0  0
  5  6  1  0  0  0  0
  6  7  2  0  0  0  0
  7  8  1  0  0  0  0
  7  9  1  0  0  0  0
  9 10  1  0  0  0  0
  5 10  2  0  0  0  0
M  END
>  <Catalog ID>
Z1509496072

>  <PlateID>
1198308-R-SPFL-01

>  <Well>
G03

>  <MW (desalted)>
148.111

>  <ClogP>
0.493

>  <HBD>
1

>  <TPSA>
52.050

>  <RotBonds>
1

$$$$

            

 13 13  0  0  0  0            999 V2000
    0.0000    0.0000    0.0000 Cl  0  0  0  0  0  0  0  0  0  0  0  0
    2.3571   -1.4438    0.0000 N   0  0  0  0  0  0  0  0  0  0  0  0
    2.3571   -0.6188    0.0000 C   0  0  0  0  0  0  0  0  0  0  0  0
    3.0716   -0.2063    0.0000 C   0  0  0  0  0  0  0  0  0  0  0  0
    3.0716    0.6188    0.0000 C   0  0  0  0  0  0  0  0  0  0  0  0
    3.7861    1.0313    0.0000 O   0  0  0  0  0  0  0  0  0  0  0  0
    4.5006    0.6188    0.0000 C   0  0  0  0  0  0  0  0  0  0  0  0
    5.2150    1.0313    0.0000 C   0  0  0  0  0  0  0  0  0  0  0  0
    5.9295    0.6187    0.0000 C   0  0  0  0  0  0  0  0  0  0  0  0
    5.9295   -0.2063    0.0000 C   0  0  0  0  0  0  0  0  0  0  0  0
    5.2150   -0.6187    0.0000 C   0  0  0  0  0  0  0  0  0  0  0  0
    4.5006   -0.2062    0.0000 C   0  0  0  0  0  0  0  0  0  0  0  0
    3.7861   -0.6188    0.0000 O   0  0  0  0  0  0  0  0  0  0  0  0
  2  3  1  0  0  0  0
  3  4  1  0  0  0  0
  4  5  1  0  0  0  0
  5  6  1  0  0  0  0
  6  7  1  0  0  0  0
  7  8  2  0  0  0  0
  8  9  1  0  0  0  0
  9 10  2  0  0  0  0
 10 11  1  0  0  0  0
 11 12  2  0  0  0  0
  7 12  1  0  0  0  0
 12 13  1  0  0  0  0
  4 13  1  0  0  0  0
M  END
>  <Catalog ID>
Z316170312

>  <PlateID>
1198308-R-SPFL-01

>  <Well>
G04

>  <MW (desalted)>
165.189

>  <ClogP>
1.193

>  <HBD>
1

>  <TPSA>
44.480

>  <RotBonds>
1

$$$$

            

 15 16  0  0  0  0            999 V2000
    1.2564   -0.1802    0.0000 C   0  0  0  0  0  0  0  0  0  0  0  0
    1.2564   -1.0052    0.0000 N   0  0  0  0  0  0  0  0  0  0  0  0
    1.9239   -1.4901    0.0000 C   0  0  0  0  0  0  0  0  0  0  0  0
    1.6689   -2.2748    0.0000 C   0  0  0  0  0  0  0  0  0  0  0  0
    0.8439   -2.2748    0.0000 C   0  0  0  0  0  0  0  0  0  0  0  0
    0.5890   -1.4901    0.0000 N   0  0  0  0  0  0  0  0  0  0  0  0
    2.1538   -2.9422    0.0000 C   0  0  0  0  0  0  0  0  0  0  0  0
    2.9788   -2.9422    0.0000 N   0  0  0  0  0  0  0  0  0  0  0  0
    3.2338   -3.7268    0.0000 C   0  0  0  0  0  0  0  0  0  0  0  0
    2.5663   -4.2117    0.0000 C   0  0  0  0  0  0  0  0  0  0  0  0
    1.8989   -3.7268    0.0000 N   0  0  0  0  0  0  0  0  0  0  0  0
    4.0184   -3.9818    0.0000 C   0  0  0  0  0  0  0  0  0  0  0  0
    4.8030   -4.2367    0.0000 F   0  0  0  0  0  0  0  0  0  0  0  0
    3.7635   -4.7664    0.0000 F   0  0  0  0  0  0  0  0  0  0  0  0
    4.2733   -3.1971    0.0000 F   0  0  0  0  0  0  0  0  0  0  0  0
  1  2  1  0  0  0  0
  2  3  1  0  0  0  0
  3  4  2  0  0  0  0
  4  5  1  0  0  0  0
  5  6  2  0  0  0  0
  2  6  1  0  0  0  0
  4  7  1  0  0  0  0
  7  8  2  0  0  0  0
  8  9  1  0  0  0  0
  9 10  2  0  0  0  0
 10 11  1  0  0  0  0
  7 11  1  0  0  0  0
  9 12  1  0  0  0  0
 12 13  1  0  0  0  0
 12 14  1  0  0  0  0
 12 15  1  0  0  0  0
M  END
>  <Catalog ID>
Z1509156266

>  <PlateID>
1198308-R-SPFL-01

>  <Well>
G05

>  <MW (desalted)>
216.163

>  <ClogP>
1.331

>  <HBD>
1

>  <TPSA>
46.500

>  <RotBonds>
2

$$$$

            

 11 12  0  0  0  0            999 V2000
    0.0000   -1.6500    0.0000 O   0  0  0  0  0  0  0  0  0  0  0  0
    0.7145   -1.2375    0.0000 C   0  0  0  0  0  0  0  0  0  0  0  0
    0.7145   -0.4125    0.0000 C   0  0  0  0  0  0  0  0  0  0  0  0
    1.4289    0.0000    0.0000 O   0  0  0  0  0  0  0  0  0  0  0  0
    2.1434   -0.4125    0.0000 C   0  0  0  0  0  0  0  0  0  0  0  0
    2.8579    0.0000    0.0000 C   0  0  0  0  0  0  0  0  0  0  0  0
    3.5724   -0.4125    0.0000 C   0  0  0  0  0  0  0  0  0  0  0  0
    3.5724   -1.2375    0.0000 C   0  0  0  0  0  0  0  0  0  0  0  0
    2.8579   -1.6500    0.0000 C   0  0  0  0  0  0  0  0  0  0  0  0
    2.1434   -1.2375    0.0000 C   0  0  0  0  0  0  0  0  0  0  0  0
    1.4289   -1.6500    0.0000 N   0  0  0  0  0  0  0  0  0  0  0  0
  1  2  2  0  0  0  0
  2  3  1  0  0  0  0
  3  4  1  0  0  0  0
  4  5  1  0  0  0  0
  5  6  2  0  0  0  0
  6  7  1  0  0  0  0
  7  8  2  0  0  0  0
  8  9  1  0  0  0  0
  9 10  2  0  0  0  0
  5 10  1  0  0  0  0
 10 11  1  0  0  0  0
  2 11  1  0  0  0  0
M  END
>  <Catalog ID>
Z56989567

>  <PlateID>
1198308-R-SPFL-01

>  <Well>
G06

>  <MW (desalted)>
149.147

>  <ClogP>
0.872

>  <HBD>
1

>  <TPSA>
38.330

>  <RotBonds>
0

$$$$

            

 13 14  0  0  0  0            999 V2000
    0.0768   -2.3215    0.0000 O   0  0  0  0  0  0  0  0  0  0  0  0
    0.8838   -2.1500    0.0000 C   0  0  0  0  0  0  0  0  0  0  0  0
    1.4358   -2.7631    0.0000 O   0  0  0  0  0  0  0  0  0  0  0  0
    1.1387   -1.3654    0.0000 C   0  0  0  0  0  0  0  0  0  0  0  0
    0.6538   -0.6979    0.0000 N   0  0  0  0  0  0  0  0  0  0  0  0
    1.1387   -0.0305    0.0000 O   0  0  0  0  0  0  0  0  0  0  0  0
    1.9233   -0.2854    0.0000 C   0  0  0  0  0  0  0  0  0  0  0  0
    2.6378    0.1271    0.0000 C   0  0  0  0  0  0  0  0  0  0  0  0
    3.3523   -0.2854    0.0000 C   0  0  0  0  0  0  0  0  0  0  0  0
    3.3523   -1.1104    0.0000 C   0  0  0  0  0  0  0  0  0  0  0  0
    4.0668   -1.5229    0.0000 F   0  0  0  0  0  0  0  0  0  0  0  0
    2.6378   -1.5229    0.0000 C   0  0  0  0  0  0  0  0  0  0  0  0
    1.9233   -1.1104    0.0000 C   0  0  0  0  0  0  0  0  0  0  0  0
  1  2  1  0  0  0  0
  2  3  2  0  0  0  0
  2  4  1  0  0  0  0
  4  5  2  0  0  0  0
  5  6  1  0  0  0  0
  6  7  1  0  0  0  0
  7  8  2  0  0  0  0
  8  9  1  0  0  0  0
  9 10  2  0  0  0  0
 10 11  1  0  0  0  0
 10 12  1  0  0  0  0
 12 13  2  0  0  0  0
  4 13  1  0  0  0  0
  7 13  1  0  0  0  0
M  END
>  <Catalog ID>
Z1262557114

>  <PlateID>
1198308-R-SPFL-01

>  <Well>
G07

>  <MW (desalted)>
181.121

>  <ClogP>
1.889

>  <HBD>
1

>  <TPSA>
63.330

>  <RotBonds>
1

$$$$

            

 14 14  0  0  0  0            999 V2000
    1.4289    3.3000    0.0000 O   0  0  0  0  0  0  0  0  0  0  0  0
    1.4289    2.4750    0.0000 C   0  0  0  0  0  0  0  0  0  0  0  0
    2.1434    2.0625    0.0000 O   0  0  0  0  0  0  0  0  0  0  0  0
    0.7145    2.0625    0.0000 C   0  0  0  0  0  0  0  0  0  0  0  0
    0.7145    1.2375    0.0000 C   0  0  0  0  0  0  0  0  0  0  0  0
    1.4289    0.8250    0.0000 C   0  0  0  0  0  0  0  0  0  0  0  0
    1.4289   -0.0000    0.0000 N   0  0  0  0  0  0  0  0  0  0  0  0
    0.7145   -0.4125    0.0000 C   0  0  0  0  0  0  0  0  0  0  0  0
    0.0000    0.0000    0.0000 C   0  0  0  0  0  0  0  0  0  0  0  0
    0.0000    0.8250    0.0000 C   0  0  0  0  0  0  0  0  0  0  0  0
   -0.7145    1.2375    0.0000 C   0  0  0  0  0  0  0  0  0  0  0  0
   -1.4289    1.6500    0.0000 F   0  0  0  0  0  0  0  0  0  0  0  0
   -0.3020    1.9520    0.0000 F   0  0  0  0  0  0  0  0  0  0  0  0
   -1.1270    0.5230    0.0000 F   0  0  0  0  0  0  0  0  0  0  0  0
  1  2  1  0  0  0  0
  2  3  2  0  0  0  0
  2  4  1  0  0  0  0
  4  5  1  0  0  0  0
  5  6  2  0  0  0  0
  6  7  1  0  0  0  0
  7  8  2  0  0  0  0
  8  9  1  0  0  0  0
  9 10  2  0  0  0  0
  5 10  1  0  0  0  0
 10 11  1  0  0  0  0
 11 12  1  0  0  0  0
 11 13  1  0  0  0  0
 11 14  1  0  0  0  0
M  END
>  <Catalog ID>
Z1269157906

>  <PlateID>
1198308-R-SPFL-01

>  <Well>
G08

>  <MW (desalted)>
205.134

>  <ClogP>
0.947

>  <HBD>
1

>  <TPSA>
50.190

>  <RotBonds>
3

$$$$

            

 12 11  0  0  0  0            999 V2000
    0.0000    0.0000    0.0000 Cl  0  0  0  0  0  0  0  0  0  0  0  0
    2.4823    2.7750    0.0000 N   0  0  0  0  0  0  0  0  0  0  0  0
    3.1968    2.3625    0.0000 C   0  0  0  0  0  0  0  0  0  0  0  0
    3.1968    1.5375    0.0000 C   0  0  0  0  0  0  0  0  0  0  0  0
    3.1968    0.7125    0.0000 C   0  0  0  0  0  0  0  0  0  0  0  0
    3.1968   -0.1125    0.0000 C   0  0  0  0  0  0  0  0  0  0  0  0
    3.9113   -0.5250    0.0000 C   0  0  0  0  0  0  0  0  0  0  0  0
    3.9113   -1.3500    0.0000 C   0  0  0  0  0  0  0  0  0  0  0  0
    3.1968   -1.7625    0.0000 C   0  0  0  0  0  0  0  0  0  0  0  0
    2.4823   -1.3500    0.0000 C   0  0  0  0  0  0  0  0  0  0  0  0
    1.7679   -1.7625    0.0000 F   0  0  0  0  0  0  0  0  0  0  0  0
    2.4823   -0.5250    0.0000 C   0  0  0  0  0  0  0  0  0  0  0  0
  2  3  1  0  0  0  0
  3  4  1  0  0  0  0
  4  5  3  0  0  0  0
  5  6  1  0  0  0  0
  6  7  2  0  0  0  0
  7  8  1  0  0  0  0
  8  9  2  0  0  0  0
  9 10  1  0  0  0  0
 10 11  1  0  0  0  0
 10 12  2  0  0  0  0
  6 12  1  0  0  0  0
M  END
>  <Catalog ID>
Z2004547701

>  <PlateID>
1198308-R-SPFL-01

>  <Well>
G09

>  <MW (desalted)>
149.165

>  <ClogP>
1.197

>  <HBD>
1

>  <TPSA>
26.020

>  <RotBonds>
2

$$$$

            

 10 10  0  0  0  0            999 V2000
    0.5678    1.9393    0.0000 C   0  0  0  0  0  0  0  0  0  0  0  0
    0.5678    1.1143    0.0000 C   0  0  0  0  0  0  0  0  0  0  0  0
    1.2352    0.6294    0.0000 N   0  0  0  0  0  0  0  0  0  0  0  0
    0.9803   -0.1553    0.0000 C   0  0  0  0  0  0  0  0  0  0  0  0
    1.4652   -0.8227    0.0000 C   0  0  0  0  0  0  0  0  0  0  0  0
    0.1553   -0.1553    0.0000 C   0  0  0  0  0  0  0  0  0  0  0  0
   -0.0997    0.6294    0.0000 S   0  0  0  0  0  0  0  0  0  0  0  0
   -0.3297   -0.8227    0.0000 C   0  0  0  0  0  0  0  0  0  0  0  0
    0.0059   -1.5764    0.0000 O   0  0  0  0  0  0  0  0  0  0  0  0
   -1.1501   -0.7365    0.0000 O   0  0  0  0  0  0  0  0  0  0  0  0
  1  2  1  0  0  0  0
  2  3  2  0  0  0  0
  3  4  1  0  0  0  0
  4  5  1  0  0  0  0
  4  6  2  0  0  0  0
  6  7  1  0  0  0  0
  2  7  1  0  0  0  0
  6  8  1  0  0  0  0
  8  9  2  0  0  0  0
  8 10  1  0  0  0  0
M  END
>  <Catalog ID>
Z56347315

>  <PlateID>
1198308-R-SPFL-01

>  <Well>
G10

>  <MW (desalted)>
157.190

>  <ClogP>
1.329

>  <HBD>
1

>  <TPSA>
50.190

>  <RotBonds>
1

$$$$

            

 15 15  0  0  0  0            999 V2000
    0.0000    0.0000    0.0000 Cl  0  0  0  0  0  0  0  0  0  0  0  0
    5.2446    2.1035    0.0000 C   0  0  0  0  0  0  0  0  0  0  0  0
    5.2446    1.2785    0.0000 C   0  0  0  0  0  0  0  0  0  0  0  0
    5.9120    0.7936    0.0000 N   0  0  0  0  0  0  0  0  0  0  0  0
    5.6571    0.0089    0.0000 O   0  0  0  0  0  0  0  0  0  0  0  0
    4.8321    0.0089    0.0000 C   0  0  0  0  0  0  0  0  0  0  0  0
    4.5771    0.7936    0.0000 N   0  0  0  0  0  0  0  0  0  0  0  0
    4.3472   -0.6585    0.0000 C   0  0  0  0  0  0  0  0  0  0  0  0
    4.6827   -1.4122    0.0000 N   0  0  0  0  0  0  0  0  0  0  0  0
    3.5267   -0.5723    0.0000 C   0  0  0  0  0  0  0  0  0  0  0  0
    3.0418   -1.2397    0.0000 C   0  0  0  0  0  0  0  0  0  0  0  0
    2.2213   -1.1535    0.0000 C   0  0  0  0  0  0  0  0  0  0  0  0
    1.8857   -0.3998    0.0000 C   0  0  0  0  0  0  0  0  0  0  0  0
    2.3706    0.2676    0.0000 C   0  0  0  0  0  0  0  0  0  0  0  0
    3.1911    0.1814    0.0000 C   0  0  0  0  0  0  0  0  0  0  0  0
  2  3  1  0  0  0  0
  3  4  2  0  0  0  0
  4  5  1  0  0  0  0
  5  6  1  0  0  0  0
  6  7  2  0  0  0  0
  3  7  1  0  0  0  0
  6  8  1  0  0  0  0
  8  9  1  0  0  0  0
  8 10  1  0  0  0  0
 10 11  2  0  0  0  0
 11 12  1  0  0  0  0
 12 13  2  0  0  0  0
 13 14  1  0  0  0  0
 14 15  2  0  0  0  0
 10 15  1  0  0  0  0
M  END
>  <Catalog ID>
Z1262398432

>  <PlateID>
1198308-R-SPFL-01

>  <Well>
G11

>  <MW (desalted)>
189.214

>  <ClogP>
0.063

>  <HBD>
1

>  <TPSA>
64.940

>  <RotBonds>
2

$$$$

            

 12 13  0  0  0  0            999 V2000
   -0.1781   -3.1062    0.0000 N   0  0  0  0  0  0  0  0  0  0  0  0
    0.0768   -2.3215    0.0000 C   0  0  0  0  0  0  0  0  0  0  0  0
    0.8838   -2.1500    0.0000 C   0  0  0  0  0  0  0  0  0  0  0  0
    1.1387   -1.3654    0.0000 N   0  0  0  0  0  0  0  0  0  0  0  0
    0.6538   -0.6979    0.0000 C   0  0  0  0  0  0  0  0  0  0  0  0
    1.1387   -0.0305    0.0000 N   0  0  0  0  0  0  0  0  0  0  0  0
    1.9233   -0.2854    0.0000 C   0  0  0  0  0  0  0  0  0  0  0  0
    2.6378    0.1271    0.0000 C   0  0  0  0  0  0  0  0  0  0  0  0
    3.3523   -0.2854    0.0000 C   0  0  0  0  0  0  0  0  0  0  0  0
    3.3523   -1.1104    0.0000 C   0  0  0  0  0  0  0  0  0  0  0  0
    2.6378   -1.5229    0.0000 C   0  0  0  0  0  0  0  0  0  0  0  0
    1.9233   -1.1104    0.0000 C   0  0  0  0  0  0  0  0  0  0  0  0
  1  2  1  0  0  0  0
  2  3  1  0  0  0  0
  3  4  1  0  0  0  0
  4  5  1  0  0  0  0
  5  6  2  0  0  0  0
  6  7  1  0  0  0  0
  7  8  2  0  0  0  0
  8  9  1  0  0  0  0
  9 10  2  0  0  0  0
 10 11  1  0  0  0  0
 11 12  2  0  0  0  0
  4 12  1  0  0  0  0
  7 12  1  0  0  0  0
M  END
>  <Catalog ID>
Z271005782

>  <PlateID>
1198308-R-SPFL-01

>  <Well>
H02

>  <MW (desalted)>
161.204

>  <ClogP>
0.828

>  <HBD>
1

>  <TPSA>
43.840

>  <RotBonds>
2

$$$$

            

 13 13  0  0  0  0            999 V2000
    0.0000    0.0000    0.0000 Cl  0  0  0  0  0  0  0  0  0  0  0  0
    1.8857   -0.7145    0.0000 O   0  0  0  0  0  0  0  0  0  0  0  0
    2.2982    0.0000    0.0000 C   0  0  0  0  0  0  0  0  0  0  0  0
    1.8857    0.7145    0.0000 O   0  0  0  0  0  0  0  0  0  0  0  0
    3.1232    0.0000    0.0000 C   0  0  0  0  0  0  0  0  0  0  0  0
    3.6081    0.6674    0.0000 C   0  0  0  0  0  0  0  0  0  0  0  0
    4.3928    0.4125    0.0000 C   0  0  0  0  0  0  0  0  0  0  0  0
    5.1072    0.8250    0.0000 C   0  0  0  0  0  0  0  0  0  0  0  0
    5.8217    0.4125    0.0000 C   0  0  0  0  0  0  0  0  0  0  0  0
    5.8217   -0.4125    0.0000 N   0  0  0  0  0  0  0  0  0  0  0  0
    5.1072   -0.8250    0.0000 C   0  0  0  0  0  0  0  0  0  0  0  0
    4.3928   -0.4125    0.0000 C   0  0  0  0  0  0  0  0  0  0  0  0
    3.6081   -0.6674    0.0000 C   0  0  0  0  0  0  0  0  0  0  0  0
  2  3  1  0  0  0  0
  3  4  2  0  0  0  0
  3  5  1  0  0  0  0
  5  6  1  0  0  0  0
  6  7  1  0  0  0  0
  7  8  2  0  0  0  0
  8  9  1  0  0  0  0
  9 10  2  0  0  0  0
 10 11  1  0  0  0  0
 11 12  2  0  0  0  0
  7 12  1  0  0  0  0
 12 13  1  0  0  0  0
  5 13  1  0  0  0  0
M  END
>  <Catalog ID>
Z2213893333

>  <PlateID>
1198308-R-SPFL-01

>  <Well>
H03

>  <MW (desalted)>
163.173

>  <ClogP>
0.291

>  <HBD>
1

>  <TPSA>
50.190

>  <RotBonds>
1

$$$$

            

 12 12  0  0  0  0            999 V2000
    0.0000    0.0000    0.0000 Cl  0  0  0  0  0  0  0  0  0  0  0  0
    2.3571   -1.0245    0.0000 N   0  0  0  0  0  0  0  0  0  0  0  0
    2.7696   -0.3100    0.0000 C   0  0  0  0  0  0  0  0  0  0  0  0
    2.7696    0.5150    0.0000 C   0  0  0  0  0  0  0  0  0  0  0  0
    3.4841    0.1025    0.0000 C   0  0  0  0  0  0  0  0  0  0  0  0
    3.8966    0.8169    0.0000 C   0  0  0  0  0  0  0  0  0  0  0  0
    4.7216    0.8169    0.0000 C   0  0  0  0  0  0  0  0  0  0  0  0
    5.1341    0.1025    0.0000 C   0  0  0  0  0  0  0  0  0  0  0  0
    5.7661    0.6328    0.0000 F   0  0  0  0  0  0  0  0  0  0  0  0
    5.7661   -0.4278    0.0000 F   0  0  0  0  0  0  0  0  0  0  0  0
    4.7216   -0.6120    0.0000 C   0  0  0  0  0  0  0  0  0  0  0  0
    3.8966   -0.6120    0.0000 C   0  0  0  0  0  0  0  0  0  0  0  0
  2  3  1  0  0  0  0
  3  4  1  0  0  0  0
  4  5  1  0  0  0  0
  3  5  1  0  0  0  0
  5  6  1  0  0  0  0
  6  7  1  0  0  0  0
  7  8  1  0  0  0  0
  8  9  1  0  0  0  0
  8 10  1  0  0  0  0
  8 11  1  0  0  0  0
 11 12  1  0  0  0  0
  5 12  1  0  0  0  0
M  END
>  <Catalog ID>
Z2418537380

>  <PlateID>
1198308-R-SPFL-01

>  <Well>
H04

>  <MW (desalted)>
161.192

>  <ClogP>
1.297

>  <HBD>
1

>  <TPSA>
26.020

>  <RotBonds>
0

$$$$

            

 12 12  0  0  0  0            999 V2000
    0.0000    0.0000    0.0000 Cl  0  0  0  0  0  0  0  0  0  0  0  0
    2.3571   -0.5846    0.0000 N   0  0  0  0  0  0  0  0  0  0  0  0
    3.1821   -0.5846    0.0000 C   0  0  0  0  0  0  0  0  0  0  0  0
    3.5946    0.1299    0.0000 C   0  0  0  0  0  0  0  0  0  0  0  0
    4.4196    0.1299    0.0000 C   0  0  0  0  0  0  0  0  0  0  0  0
    4.9046    0.7973    0.0000 C   0  0  0  0  0  0  0  0  0  0  0  0
    5.6892    0.5424    0.0000 N   0  0  0  0  0  0  0  0  0  0  0  0
    6.4738    0.7973    0.0000 C   0  0  0  0  0  0  0  0  0  0  0  0
    6.9587    0.1299    0.0000 C   0  0  0  0  0  0  0  0  0  0  0  0
    6.4738   -0.5375    0.0000 S   0  0  0  0  0  0  0  0  0  0  0  0
    5.6892   -0.2826    0.0000 C   0  0  0  0  0  0  0  0  0  0  0  0
    4.9046   -0.5375    0.0000 N   0  0  0  0  0  0  0  0  0  0  0  0
  2  3  1  0  0  0  0
  3  4  1  0  0  0  0
  4  5  1  0  0  0  0
  5  6  2  0  0  0  0
  6  7  1  0  0  0  0
  7  8  1  0  0  0  0
  8  9  1  0  0  0  0
  9 10  1  0  0  0  0
 10 11  1  0  0  0  0
  7 11  1  0  0  0  0
 11 12  2  0  0  0  0
  5 12  1  0  0  0  0
M  END
>  <Catalog ID>
Z1815155493

>  <PlateID>
1198308-R-SPFL-01

>  <Well>
H05

>  <MW (desalted)>
169.247

>  <ClogP>
-0.321

>  <HBD>
1

>  <TPSA>
43.840

>  <RotBonds>
2

$$$$

            

 11 12  0  0  0  0            999 V2000
    0.8838   -2.1500    0.0000 C   0  0  0  0  0  0  0  0  0  0  0  0
    1.1387   -1.3654    0.0000 N   0  0  0  0  0  0  0  0  0  0  0  0
    0.6538   -0.6979    0.0000 C   0  0  0  0  0  0  0  0  0  0  0  0
    1.1387   -0.0305    0.0000 C   0  0  0  0  0  0  0  0  0  0  0  0
    1.9233   -0.2854    0.0000 C   0  0  0  0  0  0  0  0  0  0  0  0
    2.6378    0.1271    0.0000 C   0  0  0  0  0  0  0  0  0  0  0  0
    3.3523   -0.2854    0.0000 C   0  0  0  0  0  0  0  0  0  0  0  0
    3.3523   -1.1104    0.0000 N   0  0  0  0  0  0  0  0  0  0  0  0
    2.6378   -1.5229    0.0000 C   0  0  0  0  0  0  0  0  0  0  0  0
    2.6378   -2.3479    0.0000 O   0  0  0  0  0  0  0  0  0  0  0  0
    1.9233   -1.1104    0.0000 C   0  0  0  0  0  0  0  0  0  0  0  0
  1  2  1  0  0  0  0
  2  3  1  0  0  0  0
  3  4  2  0  0  0  0
  4  5  1  0  0  0  0
  5  6  1  0  0  0  0
  6  7  1  0  0  0  0
  7  8  1  0  0  0  0
  8  9  1  0  0  0  0
  9 10  2  0  0  0  0
  9 11  1  0  0  0  0
  5 11  2  0  0  0  0
  2 11  1  0  0  0  0
M  END
>  <Catalog ID>
Z1184857743

>  <PlateID>
1198308-R-SPFL-01

>  <Well>
H06

>  <MW (desalted)>
150.178

>  <ClogP>
0.348

>  <HBD>
1

>  <TPSA>
34.030

>  <RotBonds>
0

$$$$

            

 10 11  0  0  0  0            999 V2000
    0.7145   -1.2375    0.0000 C   0  0  0  0  0  0  0  0  0  0  0  0
    0.7145   -0.4125    0.0000 C   0  0  0  0  0  0  0  0  0  0  0  0
    1.4289    0.0000    0.0000 C   0  0  0  0  0  0  0  0  0  0  0  0
    2.1434   -0.4125    0.0000 N   0  0  0  0  0  0  0  0  0  0  0  0
    2.8579    0.0000    0.0000 C   0  0  0  0  0  0  0  0  0  0  0  0
    3.5724   -0.4125    0.0000 C   0  0  0  0  0  0  0  0  0  0  0  0
    3.5724   -1.2375    0.0000 N   0  0  0  0  0  0  0  0  0  0  0  0
    2.8579   -1.6500    0.0000 C   0  0  0  0  0  0  0  0  0  0  0  0
    2.1434   -1.2375    0.0000 C   0  0  0  0  0  0  0  0  0  0  0  0
    1.4289   -1.6500    0.0000 C   0  0  0  0  0  0  0  0  0  0  0  0
  1  2  1  0  0  0  0
  2  3  1  0  0  0  0
  3  4  1  0  0  0  0
  4  5  1  0  0  0  0
  5  6  1  0  0  0  0
  6  7  1  0  0  0  0
  7  8  1  0  0  0  0
  8  9  1  0  0  0  0
  4  9  1  0  0  0  0
  9 10  1  0  0  0  0
  1 10  1  0  0  0  0
M  END
>  <Catalog ID>
Z336080020

>  <PlateID>
1198308-R-SPFL-01

>  <Well>
H07

>  <MW (desalted)>
140.226

>  <ClogP>
0.947

>  <HBD>
1

>  <TPSA>
15.270

>  <RotBonds>
0

$$$$

            

 14 14  0  0  0  0            999 V2000
    0.0000    0.0000    0.0000 Cl  0  0  0  0  0  0  0  0  0  0  0  0
    5.6215    1.3372    0.0000 N   0  0  0  0  0  0  0  0  0  0  0  0
    4.9070    0.9247    0.0000 C   0  0  0  0  0  0  0  0  0  0  0  0
    4.9070    0.0997    0.0000 C   0  0  0  0  0  0  0  0  0  0  0  0
    5.5745   -0.3852    0.0000 N   0  0  0  0  0  0  0  0  0  0  0  0
    5.3195   -1.1698    0.0000 C   0  0  0  0  0  0  0  0  0  0  0  0
    4.4945   -1.1698    0.0000 N   0  0  0  0  0  0  0  0  0  0  0  0
    4.2396   -0.3852    0.0000 N   0  0  0  0  0  0  0  0  0  0  0  0
    3.4550   -0.1302    0.0000 C   0  0  0  0  0  0  0  0  0  0  0  0
    2.8419   -0.6823    0.0000 C   0  0  0  0  0  0  0  0  0  0  0  0
    2.0572   -0.4273    0.0000 C   0  0  0  0  0  0  0  0  0  0  0  0
    1.8857    0.3796    0.0000 C   0  0  0  0  0  0  0  0  0  0  0  0
    2.4988    0.9317    0.0000 C   0  0  0  0  0  0  0  0  0  0  0  0
    3.2834    0.6767    0.0000 C   0  0  0  0  0  0  0  0  0  0  0  0
  2  3  1  0  0  0  0
  3  4  1  0  0  0  0
  4  5  2  0  0  0  0
  5  6  1  0  0  0  0
  6  7  2  0  0  0  0
  7  8  1  0  0  0  0
  4  8  1  0  0  0  0
  8  9  1  0  0  0  0
  9 10  2  0  0  0  0
 10 11  1  0  0  0  0
 11 12  2  0  0  0  0
 12 13  1  0  0  0  0
 13 14  2  0  0  0  0
  9 14  1  0  0  0  0
M  END
>  <Catalog ID>
Z1889902437

>  <PlateID>
1198308-R-SPFL-01

>  <Well>
H08

>  <MW (desalted)>
174.203

>  <ClogP>
0.155

>  <HBD>
1

>  <TPSA>
56.730

>  <RotBonds>
2

$$$$

            

 11 12  0  0  0  0            999 V2000
    1.2564   -0.1802    0.0000 N   0  0  0  0  0  0  0  0  0  0  0  0
    1.2564   -1.0052    0.0000 C   0  0  0  0  0  0  0  0  0  0  0  0
    1.9239   -1.4901    0.0000 C   0  0  0  0  0  0  0  0  0  0  0  0
    1.6689   -2.2748    0.0000 C   0  0  0  0  0  0  0  0  0  0  0  0
    0.8439   -2.2748    0.0000 N   0  0  0  0  0  0  0  0  0  0  0  0
    0.5890   -1.4901    0.0000 O   0  0  0  0  0  0  0  0  0  0  0  0
    2.1538   -2.9422    0.0000 C   0  0  0  0  0  0  0  0  0  0  0  0
    2.9788   -2.9422    0.0000 C   0  0  0  0  0  0  0  0  0  0  0  0
    3.2338   -3.7268    0.0000 C   0  0  0  0  0  0  0  0  0  0  0  0
    2.5663   -4.2117    0.0000 C   0  0  0  0  0  0  0  0  0  0  0  0
    1.8989   -3.7268    0.0000 C   0  0  0  0  0  0  0  0  0  0  0  0
  1  2  1  0  0  0  0
  2  3  2  0  0  0  0
  3  4  1  0  0  0  0
  4  5  2  0  0  0  0
  5  6  1  0  0  0  0
  2  6  1  0  0  0  0
  4  7  1  0  0  0  0
  7  8  1  0  0  0  0
  8  9  1  0  0  0  0
  9 10  1  0  0  0  0
 10 11  1  0  0  0  0
  7 11  1  0  0  0  0
M  END
>  <Catalog ID>
Z360168634

>  <PlateID>
1198308-R-SPFL-01

>  <Well>
H09

>  <MW (desalted)>
152.194

>  <ClogP>
1.600

>  <HBD>
1

>  <TPSA>
52.050

>  <RotBonds>
1

$$$$

            

 13 14  0  0  0  0            999 V2000
    1.4289   -0.0000    0.0000 O   0  0  0  0  0  0  0  0  0  0  0  0
    0.7145   -0.4125    0.0000 C   0  0  0  0  0  0  0  0  0  0  0  0
    0.7145   -1.2375    0.0000 C   0  0  0  0  0  0  0  0  0  0  0  0
    1.3819   -1.7224    0.0000 N   0  0  0  0  0  0  0  0  0  0  0  0
    1.1270   -2.5070    0.0000 N   0  0  0  0  0  0  0  0  0  0  0  0
    0.3020   -2.5070    0.0000 C   0  0  0  0  0  0  0  0  0  0  0  0
    0.0470   -1.7224    0.0000 O   0  0  0  0  0  0  0  0  0  0  0  0
   -0.1830   -3.1745    0.0000 C   0  0  0  0  0  0  0  0  0  0  0  0
    0.1526   -3.9282    0.0000 C   0  0  0  0  0  0  0  0  0  0  0  0
   -0.3323   -4.5956    0.0000 C   0  0  0  0  0  0  0  0  0  0  0  0
   -1.1528   -4.5094    0.0000 C   0  0  0  0  0  0  0  0  0  0  0  0
   -1.4884   -3.7557    0.0000 C   0  0  0  0  0  0  0  0  0  0  0  0
   -1.0034   -3.0882    0.0000 C   0  0  0  0  0  0  0  0  0  0  0  0
  1  2  1  0  0  0  0
  2  3  1  0  0  0  0
  3  4  2  0  0  0  0
  4  5  1  0  0  0  0
  5  6  2  0  0  0  0
  6  7  1  0  0  0  0
  3  7  1  0  0  0  0
  6  8  1  0  0  0  0
  8  9  2  0  0  0  0
  9 10  1  0  0  0  0
 10 11  2  0  0  0  0
 11 12  1  0  0  0  0
 12 13  2  0  0  0  0
  8 13  1  0  0  0  0
M  END
>  <Catalog ID>
Z431953302

>  <PlateID>
1198308-R-SPFL-01

>  <Well>
H10

>  <MW (desalted)>
176.172

>  <ClogP>
-0.346

>  <HBD>
1

>  <TPSA>
59.150

>  <RotBonds>
2

$$$$

            

 11 12  0  0  0  0            999 V2000
   -0.1105    0.4125    0.0000 C   0  0  0  0  0  0  0  0  0  0  0  0
    0.3020    1.1270    0.0000 C   0  0  0  0  0  0  0  0  0  0  0  0
    1.1270    1.1270    0.0000 C   0  0  0  0  0  0  0  0  0  0  0  0
    1.5395    0.4125    0.0000 C   0  0  0  0  0  0  0  0  0  0  0  0
    1.1270   -0.3020    0.0000 C   0  0  0  0  0  0  0  0  0  0  0  0
    0.3020   -0.3020    0.0000 C   0  0  0  0  0  0  0  0  0  0  0  0
    1.9520    1.1270    0.0000 C   0  0  0  0  0  0  0  0  0  0  0  0
    2.7770    1.1270    0.0000 N   0  0  0  0  0  0  0  0  0  0  0  0
    3.1895    0.4125    0.0000 C   0  0  0  0  0  0  0  0  0  0  0  0
    2.7770   -0.3020    0.0000 C   0  0  0  0  0  0  0  0  0  0  0  0
    1.9520   -0.3020    0.0000 S   0  0  0  0  0  0  0  0  0  0  0  0
  1  2  1  0  0  0  0
  2  3  1  0  0  0  0
  3  4  1  0  0  0  0
  4  5  1  0  0  0  0
  5  6  1  0  0  0  0
  1  6  1  0  0  0  0
  4  7  1  0  0  0  0
  7  8  1  0  0  0  0
  8  9  1  0  0  0  0
  9 10  1  0  0  0  0
 10 11  1  0  0  0  0
  4 11  1  0  0  0  0
M  END
>  <Catalog ID>
Z1262585206

>  <PlateID>
1198308-R-SPFL-01

>  <Well>
H11

>  <MW (desalted)>
171.303

>  <ClogP>
2.377

>  <HBD>
1

>  <TPSA>
12.030

>  <RotBonds>
0

$$$$

            

 12 13  0  0  0  0            999 V2000
   -0.1712   -0.6979    0.0000 C   0  0  0  0  0  0  0  0  0  0  0  0
    0.6538   -0.6979    0.0000 C   0  0  0  0  0  0  0  0  0  0  0  0
    1.1387   -0.0305    0.0000 O   0  0  0  0  0  0  0  0  0  0  0  0
    1.9233   -0.2854    0.0000 C   0  0  0  0  0  0  0  0  0  0  0  0
    2.6378    0.1271    0.0000 N   0  0  0  0  0  0  0  0  0  0  0  0
    3.3523   -0.2854    0.0000 C   0  0  0  0  0  0  0  0  0  0  0  0
    3.3523   -1.1104    0.0000 N   0  0  0  0  0  0  0  0  0  0  0  0
    2.6378   -1.5229    0.0000 C   0  0  0  0  0  0  0  0  0  0  0  0
    2.6378   -2.3479    0.0000 N   0  0  0  0  0  0  0  0  0  0  0  0
    1.9233   -1.1104    0.0000 C   0  0  0  0  0  0  0  0  0  0  0  0
    1.1387   -1.3654    0.0000 C   0  0  0  0  0  0  0  0  0  0  0  0
    0.8838   -2.1500    0.0000 C   0  0  0  0  0  0  0  0  0  0  0  0
  1  2  1  0  0  0  0
  2  3  1  0  0  0  0
  3  4  1  0  0  0  0
  4  5  2  0  0  0  0
  5  6  1  0  0  0  0
  6  7  2  0  0  0  0
  7  8  1  0  0  0  0
  8  9  1  0  0  0  0
  8 10  2  0  0  0  0
  4 10  1  0  0  0  0
 10 11  1  0  0  0  0
  2 11  2  0  0  0  0
 11 12  1  0  0  0  0
M  END
>  <Catalog ID>
Z228474562

>  <PlateID>
1198308-R-SPFL-02

>  <Well>
A02

>  <MW (desalted)>
163.177

>  <ClogP>
1.184

>  <HBD>
1

>  <TPSA>
64.940

>  <RotBonds>
0

$$$$

            

 10 10  0  0  0  0            999 V2000
   -0.8612    3.5893    0.0000 O   0  0  0  0  0  0  0  0  0  0  0  0
   -0.1467    3.1768    0.0000 C   0  0  0  0  0  0  0  0  0  0  0  0
    0.5678    3.5893    0.0000 O   0  0  0  0  0  0  0  0  0  0  0  0
   -0.1467    2.3518    0.0000 C   0  0  0  0  0  0  0  0  0  0  0  0
    0.5678    1.9393    0.0000 C   0  0  0  0  0  0  0  0  0  0  0  0
    0.5678    1.1143    0.0000 C   0  0  0  0  0  0  0  0  0  0  0  0
    1.2352    0.6294    0.0000 C   0  0  0  0  0  0  0  0  0  0  0  0
    0.9803   -0.1553    0.0000 C   0  0  0  0  0  0  0  0  0  0  0  0
    0.1553   -0.1553    0.0000 O   0  0  0  0  0  0  0  0  0  0  0  0
   -0.0997    0.6294    0.0000 C   0  0  0  0  0  0  0  0  0  0  0  0
  1  2  1  0  0  0  0
  2  3  2  0  0  0  0
  2  4  1  0  0  0  0
  4  5  1  0  0  0  0
  5  6  1  0  0  0  0
  6  7  1  0  0  0  0
  7  8  2  0  0  0  0
  8  9  1  0  0  0  0
  9 10  1  0  0  0  0
  6 10  2  0  0  0  0
M  END
>  <Catalog ID>
Z1098234501

>  <PlateID>
1198308-R-SPFL-02

>  <Well>
A03

>  <MW (desalted)>
140.137

>  <ClogP>
1.079

>  <HBD>
1

>  <TPSA>
50.440

>  <RotBonds>
3

$$$$

            

 12 13  0  0  0  0            999 V2000
    4.0668    3.1729    0.0000 O   0  0  0  0  0  0  0  0  0  0  0  0
    4.0668    2.3479    0.0000 C   0  0  0  0  0  0  0  0  0  0  0  0
    4.7812    1.9354    0.0000 O   0  0  0  0  0  0  0  0  0  0  0  0
    3.3523    1.9354    0.0000 C   0  0  0  0  0  0  0  0  0  0  0  0
    3.3523    1.1104    0.0000 C   0  0  0  0  0  0  0  0  0  0  0  0
    2.6378    0.6979    0.0000 N   0  0  0  0  0  0  0  0  0  0  0  0
    1.9233    1.1104    0.0000 C   0  0  0  0  0  0  0  0  0  0  0  0
    1.1387    0.8555    0.0000 C   0  0  0  0  0  0  0  0  0  0  0  0
    0.6538    1.5229    0.0000 C   0  0  0  0  0  0  0  0  0  0  0  0
    1.1387    2.1904    0.0000 S   0  0  0  0  0  0  0  0  0  0  0  0
    1.9233    1.9354    0.0000 C   0  0  0  0  0  0  0  0  0  0  0  0
    2.6378    2.3479    0.0000 C   0  0  0  0  0  0  0  0  0  0  0  0
  1  2  1  0  0  0  0
  2  3  2  0  0  0  0
  2  4  1  0  0  0  0
  4  5  2  0  0  0  0
  5  6  1  0  0  0  0
  6  7  2  0  0  0  0
  7  8  1  0  0  0  0
  8  9  2  0  0  0  0
  9 10  1  0  0  0  0
 10 11  1  0  0  0  0
  7 11  1  0  0  0  0
 11 12  2  0  0  0  0
  4 12  1  0  0  0  0
M  END
>  <Catalog ID>
Z1202210170

>  <PlateID>
1198308-R-SPFL-02

>  <Well>
A04

>  <MW (desalted)>
179.196

>  <ClogP>
2.178

>  <HBD>
1

>  <TPSA>
50.190

>  <RotBonds>
1

$$$$

            

 11 12  0  0  0  0            999 V2000
    0.0407   -0.1459    0.0000 O   0  0  0  0  0  0  0  0  0  0  0  0
    0.6538   -0.6979    0.0000 S   0  0  0  0  0  0  0  0  0  0  0  0
    0.0407   -1.2500    0.0000 O   0  0  0  0  0  0  0  0  0  0  0  0
    1.1387   -0.0305    0.0000 C   0  0  0  0  0  0  0  0  0  0  0  0
    1.9233   -0.2854    0.0000 C   0  0  0  0  0  0  0  0  0  0  0  0
    2.6378    0.1271    0.0000 C   0  0  0  0  0  0  0  0  0  0  0  0
    3.3523   -0.2854    0.0000 C   0  0  0  0  0  0  0  0  0  0  0  0
    3.3523   -1.1104    0.0000 C   0  0  0  0  0  0  0  0  0  0  0  0
    2.6378   -1.5229    0.0000 C   0  0  0  0  0  0  0  0  0  0  0  0
    1.9233   -1.1104    0.0000 C   0  0  0  0  0  0  0  0  0  0  0  0
    1.1387   -1.3654    0.0000 C   0  0  0  0  0  0  0  0  0  0  0  0
  1  2  2  0  0  0  0
  2  3  2  0  0  0  0
  2  4  1  0  0  0  0
  4  5  1  0  0  0  0
  5  6  2  0  0  0  0
  6  7  1  0  0  0  0
  7  8  2  0  0  0  0
  8  9  1  0  0  0  0
  9 10  2  0  0  0  0
  5 10  1  0  0  0  0
 10 11  1  0  0  0  0
  2 11  1  0  0  0  0
M  END
>  <Catalog ID>
Z1255383369

>  <PlateID>
1198308-R-SPFL-02

>  <Well>
A05

>  <MW (desalted)>
168.213

>  <ClogP>
-0.034

>  <HBD>
0

>  <TPSA>
34.140

>  <RotBonds>
0

$$$$

            

 10 11  0  0  0  0            999 V2000
    0.7145   -2.4042    0.0000 C   0  0  0  0  0  0  0  0  0  0  0  0
    0.1311   -1.8209    0.0000 C   0  0  0  0  0  0  0  0  0  0  0  0
    0.7145   -1.2375    0.0000 C   0  0  0  0  0  0  0  0  0  0  0  0
    1.2978   -1.8209    0.0000 C   0  0  0  0  0  0  0  0  0  0  0  0
    0.7145   -0.4125    0.0000 C   0  0  0  0  0  0  0  0  0  0  0  0
    0.0000    0.0000    0.0000 C   0  0  0  0  0  0  0  0  0  0  0  0
    0.0000    0.8250    0.0000 N   0  0  0  0  0  0  0  0  0  0  0  0
    0.7145    1.2375    0.0000 C   0  0  0  0  0  0  0  0  0  0  0  0
    1.4289    0.8250    0.0000 C   0  0  0  0  0  0  0  0  0  0  0  0
    1.4289    0.0000    0.0000 O   0  0  0  0  0  0  0  0  0  0  0  0
  1  2  1  0  0  0  0
  2  3  1  0  0  0  0
  3  4  1  0  0  0  0
  1  4  1  0  0  0  0
  3  5  1  0  0  0  0
  5  6  1  0  0  0  0
  6  7  1  0  0  0  0
  7  8  1  0  0  0  0
  8  9  1  0  0  0  0
  9 10  1  0  0  0  0
  5 10  1  0  0  0  0
M  END
>  <Catalog ID>
Z1407119740

>  <PlateID>
1198308-R-SPFL-02

>  <Well>
A06

>  <MW (desalted)>
141.211

>  <ClogP>
1.024

>  <HBD>
1

>  <TPSA>
21.260

>  <RotBonds>
1

$$$$

            

 16 15  0  0  0  0            999 V2000
    0.0000    0.0000    0.0000 Cl  0  0  0  0  0  0  0  0  0  0  0  0
    2.0036    0.0000    0.0000 Cl  0  0  0  0  0  0  0  0  0  0  0  0
    1.6730   -1.6500    0.0000 C   0  0  0  0  0  0  0  0  0  0  0  0
    0.9586   -2.0625    0.0000 C   0  0  0  0  0  0  0  0  0  0  0  0
    0.2441   -1.6500    0.0000 C   0  0  0  0  0  0  0  0  0  0  0  0
    0.9586   -2.8875    0.0000 N   0  0  0  0  0  0  0  0  0  0  0  0
    1.6260   -3.3724    0.0000 C   0  0  0  0  0  0  0  0  0  0  0  0
    1.3711   -4.1570    0.0000 N   0  0  0  0  0  0  0  0  0  0  0  0
    0.5461   -4.1570    0.0000 N   0  0  0  0  0  0  0  0  0  0  0  0
    0.2911   -3.3724    0.0000 C   0  0  0  0  0  0  0  0  0  0  0  0
   -0.4935   -3.1175    0.0000 C   0  0  0  0  0  0  0  0  0  0  0  0
   -1.1066   -3.6695    0.0000 C   0  0  0  0  0  0  0  0  0  0  0  0
   -1.8912   -3.4146    0.0000 C   0  0  0  0  0  0  0  0  0  0  0  0
   -2.0627   -2.6076    0.0000 N   0  0  0  0  0  0  0  0  0  0  0  0
   -1.4496   -2.0556    0.0000 C   0  0  0  0  0  0  0  0  0  0  0  0
   -0.6650   -2.3105    0.0000 C   0  0  0  0  0  0  0  0  0  0  0  0
  3  4  1  0  0  0  0
  4  5  1  0  0  0  0
  4  6  1  0  0  0  0
  6  7  1  0  0  0  0
  7  8  2  0  0  0  0
  8  9  1  0  0  0  0
  9 10  2  0  0  0  0
  6 10  1  0  0  0  0
 10 11  1  0  0  0  0
 11 12  1  0  0  0  0
 12 13  1  0  0  0  0
 13 14  1  0  0  0  0
 14 15  1  0  0  0  0
 15 16  1  0  0  0  0
 11 16  1  0  0  0  0
M  END
>  <Catalog ID>
Z1266823247

>  <PlateID>
1198308-R-SPFL-02

>  <Well>
A07

>  <MW (desalted)>
194.277

>  <ClogP>
-0.272

>  <HBD>
1

>  <TPSA>
42.740

>  <RotBonds>
2

$$$$

            

 11 11  0  0  0  0            999 V2000
   -0.1467    2.3518    0.0000 O   0  0  0  0  0  0  0  0  0  0  0  0
    0.5678    1.9393    0.0000 C   0  0  0  0  0  0  0  0  0  0  0  0
    0.5678    1.1143    0.0000 C   0  0  0  0  0  0  0  0  0  0  0  0
    1.2352    0.6294    0.0000 C   0  0  0  0  0  0  0  0  0  0  0  0
    0.9803   -0.1553    0.0000 C   0  0  0  0  0  0  0  0  0  0  0  0
    0.1553   -0.1553    0.0000 N   0  0  0  0  0  0  0  0  0  0  0  0
   -0.0997    0.6294    0.0000 O   0  0  0  0  0  0  0  0  0  0  0  0
    1.4652   -0.8227    0.0000 C   0  0  0  0  0  0  0  0  0  0  0  0
    1.9501   -1.4901    0.0000 F   0  0  0  0  0  0  0  0  0  0  0  0
    0.7977   -1.3076    0.0000 F   0  0  0  0  0  0  0  0  0  0  0  0
    2.1326   -0.3378    0.0000 F   0  0  0  0  0  0  0  0  0  0  0  0
  1  2  1  0  0  0  0
  2  3  1  0  0  0  0
  3  4  2  0  0  0  0
  4  5  1  0  0  0  0
  5  6  2  0  0  0  0
  6  7  1  0  0  0  0
  3  7  1  0  0  0  0
  5  8  1  0  0  0  0
  8  9  1  0  0  0  0
  8 10  1  0  0  0  0
  8 11  1  0  0  0  0
M  END
>  <Catalog ID>
Z1373343139

>  <PlateID>
1198308-R-SPFL-02

>  <Well>
A08

>  <MW (desalted)>
167.086

>  <ClogP>
0.237

>  <HBD>
1

>  <TPSA>
46.260

>  <RotBonds>
2

$$$$

            

 11 12  0  0  0  0            999 V2000
    0.3020   -0.3020    0.0000 C   0  0  0  0  0  0  0  0  0  0  0  0
   -0.1105    0.4125    0.0000 C   0  0  0  0  0  0  0  0  0  0  0  0
    0.3020    1.1270    0.0000 N   0  0  0  0  0  0  0  0  0  0  0  0
    1.1270    1.1270    0.0000 C   0  0  0  0  0  0  0  0  0  0  0  0
    1.5395    0.4125    0.0000 C   0  0  0  0  0  0  0  0  0  0  0  0
    1.1270   -0.3020    0.0000 C   0  0  0  0  0  0  0  0  0  0  0  0
    1.9520    1.1270    0.0000 C   0  0  0  0  0  0  0  0  0  0  0  0
    2.7770    1.1270    0.0000 C   0  0  0  0  0  0  0  0  0  0  0  0
    3.1895    0.4125    0.0000 C   0  0  0  0  0  0  0  0  0  0  0  0
    2.7770   -0.3020    0.0000 O   0  0  0  0  0  0  0  0  0  0  0  0
    1.9520   -0.3020    0.0000 C   0  0  0  0  0  0  0  0  0  0  0  0
  1  2  1  0  0  0  0
  2  3  1  0  0  0  0
  3  4  1  0  0  0  0
  4  5  1  0  0  0  0
  5  6  1  0  0  0  0
  1  6  1  0  0  0  0
  5  7  1  0  0  0  0
  7  8  1  0  0  0  0
  8  9  1  0  0  0  0
  9 10  1  0  0  0  0
 10 11  1  0  0  0  0
  5 11  1  0  0  0  0
M  END
>  <Catalog ID>
Z1209426524

>  <PlateID>
1198308-R-SPFL-02

>  <Well>
A09

>  <MW (desalted)>
155.237

>  <ClogP>
0.879

>  <HBD>
1

>  <TPSA>
21.260

>  <RotBonds>
0

$$$$

            

 13 13  0  0  0  0            999 V2000
    0.0000    0.0000    0.0000 Cl  0  0  0  0  0  0  0  0  0  0  0  0
    5.2784    1.2726    0.0000 O   0  0  0  0  0  0  0  0  0  0  0  0
    4.7640    0.6276    0.0000 C   0  0  0  0  0  0  0  0  0  0  0  0
    5.1219   -0.1157    0.0000 C   0  0  0  0  0  0  0  0  0  0  0  0
    4.7640   -0.8590    0.0000 N   0  0  0  0  0  0  0  0  0  0  0  0
    3.9597   -1.0426    0.0000 C   0  0  0  0  0  0  0  0  0  0  0  0
    3.3147   -0.5282    0.0000 C   0  0  0  0  0  0  0  0  0  0  0  0
    2.6002   -0.9407    0.0000 C   0  0  0  0  0  0  0  0  0  0  0  0
    1.8857   -0.5282    0.0000 C   0  0  0  0  0  0  0  0  0  0  0  0
    1.8857    0.2968    0.0000 C   0  0  0  0  0  0  0  0  0  0  0  0
    2.6002    0.7093    0.0000 C   0  0  0  0  0  0  0  0  0  0  0  0
    3.3147    0.2968    0.0000 C   0  0  0  0  0  0  0  0  0  0  0  0
    3.9597    0.8112    0.0000 N   0  0  0  0  0  0  0  0  0  0  0  0
  2  3  2  0  0  0  0
  3  4  1  0  0  0  0
  4  5  1  0  0  0  0
  5  6  1  0  0  0  0
  6  7  1  0  0  0  0
  7  8  2  0  0  0  0
  8  9  1  0  0  0  0
  9 10  2  0  0  0  0
 10 11  1  0  0  0  0
 11 12  2  0  0  0  0
  7 12  1  0  0  0  0
 12 13  1  0  0  0  0
  3 13  1  0  0  0  0
M  END
>  <Catalog ID>
Z2492774523

>  <PlateID>
1198308-R-SPFL-02

>  <Well>
A10

>  <MW (desalted)>
162.189

>  <ClogP>
0.486

>  <HBD>
2

>  <TPSA>
41.130

>  <RotBonds>
0

$$$$

            

 17 17  0  0  0  0            999 V2000
    0.0000    0.0000    0.0000 Cl  0  0  0  0  0  0  0  0  0  0  0  0
    1.8857    1.6500    0.0000 O   0  0  0  0  0  0  0  0  0  0  0  0
    2.6002    1.2375    0.0000 C   0  0  0  0  0  0  0  0  0  0  0  0
    3.3147    1.6500    0.0000 O   0  0  0  0  0  0  0  0  0  0  0  0
    2.6002    0.4125    0.0000 C   0  0  0  0  0  0  0  0  0  0  0  0
    1.8857    0.0000    0.0000 C   0  0  0  0  0  0  0  0  0  0  0  0
    1.8857   -0.8250    0.0000 N   0  0  0  0  0  0  0  0  0  0  0  0
    2.6002   -1.2375    0.0000 C   0  0  0  0  0  0  0  0  0  0  0  0
    3.3147   -0.8250    0.0000 C   0  0  0  0  0  0  0  0  0  0  0  0
    3.3147    0.0000    0.0000 C   0  0  0  0  0  0  0  0  0  0  0  0
    4.0291    0.4125    0.0000 O   0  0  0  0  0  0  0  0  0  0  0  0
    4.7436   -0.0000    0.0000 C   0  0  0  0  0  0  0  0  0  0  0  0
    5.4581    0.4125    0.0000 C   0  0  0  0  0  0  0  0  0  0  0  0
    6.1725   -0.0000    0.0000 C   0  0  0  0  0  0  0  0  0  0  0  0
    6.1725   -0.8250    0.0000 C   0  0  0  0  0  0  0  0  0  0  0  0
    5.4581   -1.2375    0.0000 C   0  0  0  0  0  0  0  0  0  0  0  0
    4.7436   -0.8250    0.0000 C   0  0  0  0  0  0  0  0  0  0  0  0
  2  3  1  0  0  0  0
  3  4  2  0  0  0  0
  3  5  1  0  0  0  0
  5  6  2  0  0  0  0
  6  7  1  0  0  0  0
  7  8  2  0  0  0  0
  8  9  1  0  0  0  0
  9 10  2  0  0  0  0
  5 10  1  0  0  0  0
 10 11  1  0  0  0  0
 11 12  1  0  0  0  0
 12 13  2  0  0  0  0
 13 14  1  0  0  0  0
 14 15  2  0  0  0  0
 15 16  1  0  0  0  0
 16 17  2  0  0  0  0
 12 17  1  0  0  0  0
M  END
>  <Catalog ID>
Z1998612721

>  <PlateID>
1198308-R-SPFL-02

>  <Well>
A11

>  <MW (desalted)>
215.205

>  <ClogP>
2.467

>  <HBD>
1

>  <TPSA>
59.420

>  <RotBonds>
3

$$$$

            

 13 14  0  0  0  0            999 V2000
   -0.1554    4.8282    0.0000 C   0  0  0  0  0  0  0  0  0  0  0  0
   -0.6403    4.1608    0.0000 C   0  0  0  0  0  0  0  0  0  0  0  0
   -0.3853    3.3761    0.0000 N   0  0  0  0  0  0  0  0  0  0  0  0
   -1.0528    2.8912    0.0000 C   0  0  0  0  0  0  0  0  0  0  0  0
   -1.7202    3.3761    0.0000 S   0  0  0  0  0  0  0  0  0  0  0  0
   -1.4653    4.1608    0.0000 C   0  0  0  0  0  0  0  0  0  0  0  0
   -1.9502    4.8282    0.0000 C   0  0  0  0  0  0  0  0  0  0  0  0
   -1.6147    5.5819    0.0000 C   0  0  0  0  0  0  0  0  0  0  0  0
   -2.0996    6.2493    0.0000 O   0  0  0  0  0  0  0  0  0  0  0  0
   -0.7942    5.6681    0.0000 O   0  0  0  0  0  0  0  0  0  0  0  0
   -1.0528    2.0662    0.0000 C   0  0  0  0  0  0  0  0  0  0  0  0
   -0.6403    1.3517    0.0000 C   0  0  0  0  0  0  0  0  0  0  0  0
   -1.4653    1.3517    0.0000 C   0  0  0  0  0  0  0  0  0  0  0  0
  1  2  1  0  0  0  0
  2  3  1  0  0  0  0
  3  4  2  0  0  0  0
  4  5  1  0  0  0  0
  5  6  1  0  0  0  0
  2  6  2  0  0  0  0
  6  7  1  0  0  0  0
  7  8  1  0  0  0  0
  8  9  2  0  0  0  0
  8 10  1  0  0  0  0
  4 11  1  0  0  0  0
 11 12  1  0  0  0  0
 12 13  1  0  0  0  0
 11 13  1  0  0  0  0
M  END
>  <Catalog ID>
Z1238833184

>  <PlateID>
1198308-R-SPFL-02

>  <Well>
B02

>  <MW (desalted)>
197.254

>  <ClogP>
1.150

>  <HBD>
1

>  <TPSA>
50.190

>  <RotBonds>
3

$$$$

            

 11 12  0  0  0  0            999 V2000
    1.4289   -2.4750    0.0000 N   0  0  0  0  0  0  0  0  0  0  0  0
    1.4289   -1.6500    0.0000 C   0  0  0  0  0  0  0  0  0  0  0  0
    0.7145   -1.2375    0.0000 C   0  0  0  0  0  0  0  0  0  0  0  0
    0.7145   -0.4125    0.0000 C   0  0  0  0  0  0  0  0  0  0  0  0
    1.4289    0.0000    0.0000 N   0  0  0  0  0  0  0  0  0  0  0  0
    2.1434   -0.4125    0.0000 C   0  0  0  0  0  0  0  0  0  0  0  0
    2.8579    0.0000    0.0000 C   0  0  0  0  0  0  0  0  0  0  0  0
    3.5724   -0.4125    0.0000 C   0  0  0  0  0  0  0  0  0  0  0  0
    3.5724   -1.2375    0.0000 C   0  0  0  0  0  0  0  0  0  0  0  0
    2.8579   -1.6500    0.0000 N   0  0  0  0  0  0  0  0  0  0  0  0
    2.1434   -1.2375    0.0000 C   0  0  0  0  0  0  0  0  0  0  0  0
  1  2  1  0  0  0  0
  2  3  2  0  0  0  0
  3  4  1  0  0  0  0
  4  5  2  0  0  0  0
  5  6  1  0  0  0  0
  6  7  2  0  0  0  0
  7  8  1  0  0  0  0
  8  9  2  0  0  0  0
  9 10  1  0  0  0  0
 10 11  2  0  0  0  0
  2 11  1  0  0  0  0
  6 11  1  0  0  0  0
M  END
>  <Catalog ID>
Z1198152636

>  <PlateID>
1198308-R-SPFL-02

>  <Well>
B03

>  <MW (desalted)>
145.161

>  <ClogP>
1.056

>  <HBD>
1

>  <TPSA>
51.800

>  <RotBonds>
0

$$$$

            

 13 14  0  0  0  0            999 V2000
    0.0000   -2.4750    0.0000 O   0  0  0  0  0  0  0  0  0  0  0  0
    0.0000   -1.6500    0.0000 C   0  0  0  0  0  0  0  0  0  0  0  0
   -0.7145   -1.2375    0.0000 O   0  0  0  0  0  0  0  0  0  0  0  0
    0.7145   -1.2375    0.0000 C   0  0  0  0  0  0  0  0  0  0  0  0
    0.7145   -0.4125    0.0000 C   0  0  0  0  0  0  0  0  0  0  0  0
    1.4289    0.0000    0.0000 O   0  0  0  0  0  0  0  0  0  0  0  0
    2.1434   -0.4125    0.0000 C   0  0  0  0  0  0  0  0  0  0  0  0
    2.8579    0.0000    0.0000 C   0  0  0  0  0  0  0  0  0  0  0  0
    3.5724   -0.4125    0.0000 C   0  0  0  0  0  0  0  0  0  0  0  0
    3.5724   -1.2375    0.0000 C   0  0  0  0  0  0  0  0  0  0  0  0
    2.8579   -1.6500    0.0000 C   0  0  0  0  0  0  0  0  0  0  0  0
    2.1434   -1.2375    0.0000 C   0  0  0  0  0  0  0  0  0  0  0  0
    1.4289   -1.6500    0.0000 C   0  0  0  0  0  0  0  0  0  0  0  0
  1  2  1  0  0  0  0
  2  3  2  0  0  0  0
  2  4  1  0  0  0  0
  4  5  1  0  0  0  0
  5  6  1  0  0  0  0
  6  7  1  0  0  0  0
  7  8  2  0  0  0  0
  8  9  1  0  0  0  0
  9 10  2  0  0  0  0
 10 11  1  0  0  0  0
 11 12  2  0  0  0  0
  7 12  1  0  0  0  0
 12 13  1  0  0  0  0
  4 13  1  0  0  0  0
M  END
>  <Catalog ID>
Z90663552

>  <PlateID>
1198308-R-SPFL-02

>  <Well>
B04

>  <MW (desalted)>
178.185

>  <ClogP>
1.638

>  <HBD>
1

>  <TPSA>
46.530

>  <RotBonds>
1

$$$$

            

 12 13  0  0  0  0            999 V2000
    0.7145   -0.4125    0.0000 O   0  0  0  0  0  0  0  0  0  0  0  0
    0.7145   -1.2375    0.0000 C   0  0  0  0  0  0  0  0  0  0  0  0
    1.3819   -1.7224    0.0000 N   0  0  0  0  0  0  0  0  0  0  0  0
    1.1270   -2.5070    0.0000 C   0  0  0  0  0  0  0  0  0  0  0  0
    0.3020   -2.5070    0.0000 C   0  0  0  0  0  0  0  0  0  0  0  0
    0.0470   -1.7224    0.0000 N   0  0  0  0  0  0  0  0  0  0  0  0
   -0.1830   -3.1745    0.0000 C   0  0  0  0  0  0  0  0  0  0  0  0
    0.1526   -3.9282    0.0000 C   0  0  0  0  0  0  0  0  0  0  0  0
   -0.3323   -4.5956    0.0000 C   0  0  0  0  0  0  0  0  0  0  0  0
   -1.1528   -4.5094    0.0000 C   0  0  0  0  0  0  0  0  0  0  0  0
   -1.4884   -3.7557    0.0000 C   0  0  0  0  0  0  0  0  0  0  0  0
   -1.0034   -3.0882    0.0000 C   0  0  0  0  0  0  0  0  0  0  0  0
  1  2  2  0  0  0  0
  2  3  1  0  0  0  0
  3  4  1  0  0  0  0
  4  5  1  0  0  0  0
  5  6  1  0  0  0  0
  2  6  1  0  0  0  0
  5  7  1  0  0  0  0
  7  8  2  0  0  0  0
  8  9  1  0  0  0  0
  9 10  2  0  0  0  0
 10 11  1  0  0  0  0
 11 12  2  0  0  0  0
  7 12  1  0  0  0  0
M  END
>  <Catalog ID>
Z1255433877

>  <PlateID>
1198308-R-SPFL-02

>  <Well>
B05

>  <MW (desalted)>
162.189

>  <ClogP>
0.606

>  <HBD>
2

>  <TPSA>
41.130

>  <RotBonds>
1

$$$$

            

 11 12  0  0  0  0            999 V2000
    0.3020   -0.3020    0.0000 C   0  0  0  0  0  0  0  0  0  0  0  0
   -0.1105    0.4125    0.0000 C   0  0  0  0  0  0  0  0  0  0  0  0
    0.3020    1.1270    0.0000 N   0  0  0  0  0  0  0  0  0  0  0  0
    1.1270    1.1270    0.0000 C   0  0  0  0  0  0  0  0  0  0  0  0
    1.5395    0.4125    0.0000 C   0  0  0  0  0  0  0  0  0  0  0  0
    1.1270   -0.3020    0.0000 C   0  0  0  0  0  0  0  0  0  0  0  0
    1.9520    1.1270    0.0000 C   0  0  0  0  0  0  0  0  0  0  0  0
    2.7770    1.1270    0.0000 C   0  0  0  0  0  0  0  0  0  0  0  0
    3.1895    0.4125    0.0000 C   0  0  0  0  0  0  0  0  0  0  0  0
    2.7770   -0.3020    0.0000 C   0  0  0  0  0  0  0  0  0  0  0  0
    1.9520   -0.3020    0.0000 C   0  0  0  0  0  0  0  0  0  0  0  0
  1  2  1  0  0  0  0
  2  3  1  0  0  0  0
  3  4  1  0  0  0  0
  4  5  1  0  0  0  0
  5  6  1  0  0  0  0
  1  6  1  0  0  0  0
  5  7  1  0  0  0  0
  7  8  1  0  0  0  0
  8  9  1  0  0  0  0
  9 10  2  0  0  0  0
 10 11  1  0  0  0  0
  5 11  1  0  0  0  0
M  END
>  <Catalog ID>
Z1197870513

>  <PlateID>
1198308-R-SPFL-02

>  <Well>
B06

>  <MW (desalted)>
151.249

>  <ClogP>
2.442

>  <HBD>
1

>  <TPSA>
12.030

>  <RotBonds>
0

$$$$

            

 12 12  0  0  0  0            999 V2000
    0.0000    0.0000    0.0000 Cl  0  0  0  0  0  0  0  0  0  0  0  0
    2.4725    0.3606    0.0000 N   0  0  0  0  0  0  0  0  0  0  0  0
    3.0246   -0.2525    0.0000 C   0  0  0  0  0  0  0  0  0  0  0  0
    3.6920   -0.7374    0.0000 C   0  0  0  0  0  0  0  0  0  0  0  0
    3.4371   -1.5220    0.0000 C   0  0  0  0  0  0  0  0  0  0  0  0
    2.6121   -1.5220    0.0000 C   0  0  0  0  0  0  0  0  0  0  0  0
    2.3571   -0.7374    0.0000 C   0  0  0  0  0  0  0  0  0  0  0  0
    3.5766    0.3606    0.0000 C   0  0  0  0  0  0  0  0  0  0  0  0
    3.4051    1.1676    0.0000 N   0  0  0  0  0  0  0  0  0  0  0  0
    4.1196    1.5801    0.0000 C   0  0  0  0  0  0  0  0  0  0  0  0
    4.7327    1.0281    0.0000 C   0  0  0  0  0  0  0  0  0  0  0  0
    4.3971    0.2744    0.0000 S   0  0  0  0  0  0  0  0  0  0  0  0
  2  3  1  0  0  0  0
  3  4  1  0  0  0  0
  4  5  1  0  0  0  0
  5  6  1  0  0  0  0
  6  7  1  0  0  0  0
  3  7  1  0  0  0  0
  3  8  1  0  0  0  0
  8  9  2  0  0  0  0
  9 10  1  0  0  0  0
 10 11  2  0  0  0  0
 11 12  1  0  0  0  0
  8 12  1  0  0  0  0
M  END
>  <Catalog ID>
Z1695797873

>  <PlateID>
1198308-R-SPFL-02

>  <Well>
B07

>  <MW (desalted)>
168.259

>  <ClogP>
0.900

>  <HBD>
1

>  <TPSA>
38.910

>  <RotBonds>
1

$$$$

            

 11 12  0  0  0  0            999 V2000
    4.0668    2.3479    0.0000 C   0  0  0  0  0  0  0  0  0  0  0  0
    3.3523    1.9354    0.0000 C   0  0  0  0  0  0  0  0  0  0  0  0
    3.3523    1.1104    0.0000 C   0  0  0  0  0  0  0  0  0  0  0  0
    2.6378    0.6979    0.0000 C   0  0  0  0  0  0  0  0  0  0  0  0
    1.9233    1.1104    0.0000 N   0  0  0  0  0  0  0  0  0  0  0  0
    1.1387    0.8555    0.0000 N   0  0  0  0  0  0  0  0  0  0  0  0
    0.6538    1.5229    0.0000 C   0  0  0  0  0  0  0  0  0  0  0  0
    1.1387    2.1904    0.0000 N   0  0  0  0  0  0  0  0  0  0  0  0
    1.9233    1.9354    0.0000 C   0  0  0  0  0  0  0  0  0  0  0  0
    2.6378    2.3479    0.0000 C   0  0  0  0  0  0  0  0  0  0  0  0
    2.6378    3.1729    0.0000 N   0  0  0  0  0  0  0  0  0  0  0  0
  1  2  1  0  0  0  0
  2  3  1  0  0  0  0
  3  4  2  0  0  0  0
  4  5  1  0  0  0  0
  5  6  1  0  0  0  0
  6  7  2  0  0  0  0
  7  8  1  0  0  0  0
  8  9  2  0  0  0  0
  5  9  1  0  0  0  0
  9 10  1  0  0  0  0
  2 10  2  0  0  0  0
 10 11  1  0  0  0  0
M  END
>  <Catalog ID>
Z1255420494

>  <PlateID>
1198308-R-SPFL-02

>  <Well>
B08

>  <MW (desalted)>
148.165

>  <ClogP>
0.427

>  <HBD>
1

>  <TPSA>
56.210

>  <RotBonds>
0

$$$$

            

 11 12  0  0  0  0            999 V2000
    1.4289   -2.4750    0.0000 O   0  0  0  0  0  0  0  0  0  0  0  0
    1.4289   -1.6500    0.0000 C   0  0  0  0  0  0  0  0  0  0  0  0
    0.7145   -1.2375    0.0000 N   0  0  0  0  0  0  0  0  0  0  0  0
    0.7145   -0.4125    0.0000 C   0  0  0  0  0  0  0  0  0  0  0  0
    1.4289    0.0000    0.0000 C   0  0  0  0  0  0  0  0  0  0  0  0
    2.1434   -0.4125    0.0000 C   0  0  0  0  0  0  0  0  0  0  0  0
    2.8579    0.0000    0.0000 C   0  0  0  0  0  0  0  0  0  0  0  0
    3.5724   -0.4125    0.0000 C   0  0  0  0  0  0  0  0  0  0  0  0
    3.5724   -1.2375    0.0000 N   0  0  0  0  0  0  0  0  0  0  0  0
    2.8579   -1.6500    0.0000 C   0  0  0  0  0  0  0  0  0  0  0  0
    2.1434   -1.2375    0.0000 C   0  0  0  0  0  0  0  0  0  0  0  0
  1  2  2  0  0  0  0
  2  3  1  0  0  0  0
  3  4  1  0  0  0  0
  4  5  2  0  0  0  0
  5  6  1  0  0  0  0
  6  7  2  0  0  0  0
  7  8  1  0  0  0  0
  8  9  2  0  0  0  0
  9 10  1  0  0  0  0
 10 11  2  0  0  0  0
  2 11  1  0  0  0  0
  6 11  1  0  0  0  0
M  END
>  <Catalog ID>
Z1203731790

>  <PlateID>
1198308-R-SPFL-02

>  <Well>
B09

>  <MW (desalted)>
146.146

>  <ClogP>
-0.100

>  <HBD>
1

>  <TPSA>
41.990

>  <RotBonds>
0

$$$$

            

 11 12  0  0  0  0            999 V2000
   -0.1712   -0.6979    0.0000 C   0  0  0  0  0  0  0  0  0  0  0  0
    0.6538   -0.6979    0.0000 C   0  0  0  0  0  0  0  0  0  0  0  0
    1.1387   -0.0305    0.0000 C   0  0  0  0  0  0  0  0  0  0  0  0
    1.9233   -0.2854    0.0000 C   0  0  0  0  0  0  0  0  0  0  0  0
    2.6378    0.1271    0.0000 N   0  0  0  0  0  0  0  0  0  0  0  0
    3.3523   -0.2854    0.0000 C   0  0  0  0  0  0  0  0  0  0  0  0
    3.3523   -1.1104    0.0000 C   0  0  0  0  0  0  0  0  0  0  0  0
    2.6378   -1.5229    0.0000 C   0  0  0  0  0  0  0  0  0  0  0  0
    2.6378   -2.3479    0.0000 N   0  0  0  0  0  0  0  0  0  0  0  0
    1.9233   -1.1104    0.0000 N   0  0  0  0  0  0  0  0  0  0  0  0
    1.1387   -1.3654    0.0000 N   0  0  0  0  0  0  0  0  0  0  0  0
  1  2  1  0  0  0  0
  2  3  1  0  0  0  0
  3  4  2  0  0  0  0
  4  5  1  0  0  0  0
  5  6  2  0  0  0  0
  6  7  1  0  0  0  0
  7  8  2  0  0  0  0
  8  9  1  0  0  0  0
  8 10  1  0  0  0  0
  4 10  1  0  0  0  0
 10 11  1  0  0  0  0
  2 11  2  0  0  0  0
M  END
>  <Catalog ID>
Z1203580784

>  <PlateID>
1198308-R-SPFL-02

>  <Well>
B10

>  <MW (desalted)>
148.165

>  <ClogP>
0.448

>  <HBD>
1

>  <TPSA>
56.210

>  <RotBonds>
0

$$$$

            

 14 15  0  0  0  0            999 V2000
   -0.0980   -0.5558    0.0000 N   0  0  0  0  0  0  0  0  0  0  0  0
    0.7145   -0.4125    0.0000 C   0  0  0  0  0  0  0  0  0  0  0  0
    1.2448   -1.0445    0.0000 C   0  0  0  0  0  0  0  0  0  0  0  0
    1.9592   -1.4570    0.0000 C   0  0  0  0  0  0  0  0  0  0  0  0
    1.9592   -2.2820    0.0000 C   0  0  0  0  0  0  0  0  0  0  0  0
    1.2448   -2.6945    0.0000 C   0  0  0  0  0  0  0  0  0  0  0  0
    0.5303   -2.2820    0.0000 C   0  0  0  0  0  0  0  0  0  0  0  0
    0.5303   -1.4570    0.0000 C   0  0  0  0  0  0  0  0  0  0  0  0
    1.7751   -0.4125    0.0000 N   0  0  0  0  0  0  0  0  0  0  0  0
    1.4929    0.3627    0.0000 C   0  0  0  0  0  0  0  0  0  0  0  0
    2.0232    0.9947    0.0000 C   0  0  0  0  0  0  0  0  0  0  0  0
    2.8357    0.8515    0.0000 C   0  0  0  0  0  0  0  0  0  0  0  0
    3.1178    0.0762    0.0000 C   0  0  0  0  0  0  0  0  0  0  0  0
    2.5875   -0.5558    0.0000 C   0  0  0  0  0  0  0  0  0  0  0  0
  1  2  1  0  0  0  0
  2  3  1  0  0  0  0
  3  4  1  0  0  0  0
  4  5  1  0  0  0  0
  5  6  1  0  0  0  0
  6  7  1  0  0  0  0
  7  8  1  0  0  0  0
  3  8  1  0  0  0  0
  3  9  1  0  0  0  0
  9 10  1  0  0  0  0
 10 11  1  0  0  0  0
 11 12  1  0  0  0  0
 12 13  1  0  0  0  0
 13 14  1  0  0  0  0
  9 14  1  0  0  0  0
M  END
>  <Catalog ID>
Z90124804

>  <PlateID>
1198308-R-SPFL-02

>  <Well>
B11

>  <MW (desalted)>
196.332

>  <ClogP>
2.814

>  <HBD>
1

>  <TPSA>
29.260

>  <RotBonds>
2

$$$$

            

 11 10  0  0  0  0            999 V2000
    0.0000    0.0000    0.0000 Cl  0  0  0  0  0  0  0  0  0  0  0  0
    1.7679    1.3821    0.0000 F   0  0  0  0  0  0  0  0  0  0  0  0
    2.4823    0.9696    0.0000 C   0  0  0  0  0  0  0  0  0  0  0  0
    2.0698    0.2552    0.0000 F   0  0  0  0  0  0  0  0  0  0  0  0
    2.8948    1.6841    0.0000 F   0  0  0  0  0  0  0  0  0  0  0  0
    3.1968    0.5571    0.0000 C   0  0  0  0  0  0  0  0  0  0  0  0
    3.1968   -0.2679    0.0000 C   0  0  0  0  0  0  0  0  0  0  0  0
    3.8642   -0.7528    0.0000 C   0  0  0  0  0  0  0  0  0  0  0  0
    3.6093   -1.5374    0.0000 C   0  0  0  0  0  0  0  0  0  0  0  0
    2.7843   -1.5374    0.0000 N   0  0  0  0  0  0  0  0  0  0  0  0
    2.5294   -0.7528    0.0000 C   0  0  0  0  0  0  0  0  0  0  0  0
  2  3  1  0  0  0  0
  3  4  1  0  0  0  0
  3  5  1  0  0  0  0
  3  6  1  0  0  0  0
  6  7  1  0  0  0  0
  7  8  1  0  0  0  0
  8  9  1  0  0  0  0
  9 10  1  0  0  0  0
 10 11  1  0  0  0  0
  7 11  1  0  0  0  0
M  END
>  <Catalog ID>
Z1171220824

>  <PlateID>
1198308-R-SPFL-02

>  <Well>
C02

>  <MW (desalted)>
153.146

>  <ClogP>
0.938

>  <HBD>
1

>  <TPSA>
12.030

>  <RotBonds>
2

$$$$

            

 14 15  0  0  0  0            999 V2000
   -0.1712   -0.6979    0.0000 C   0  0  0  0  0  0  0  0  0  0  0  0
    0.6538   -0.6979    0.0000 C   0  0  0  0  0  0  0  0  0  0  0  0
    1.1387   -0.0305    0.0000 C   0  0  0  0  0  0  0  0  0  0  0  0
    1.9233   -0.2854    0.0000 C   0  0  0  0  0  0  0  0  0  0  0  0
    2.6378    0.1271    0.0000 N   0  0  0  0  0  0  0  0  0  0  0  0
    3.3523   -0.2854    0.0000 C   0  0  0  0  0  0  0  0  0  0  0  0
    3.3523   -1.1104    0.0000 C   0  0  0  0  0  0  0  0  0  0  0  0
    2.6378   -1.5229    0.0000 C   0  0  0  0  0  0  0  0  0  0  0  0
    1.9233   -1.1104    0.0000 N   0  0  0  0  0  0  0  0  0  0  0  0
    1.1387   -1.3654    0.0000 N   0  0  0  0  0  0  0  0  0  0  0  0
    2.6378   -2.3479    0.0000 C   0  0  0  0  0  0  0  0  0  0  0  0
    2.6378   -3.1729    0.0000 F   0  0  0  0  0  0  0  0  0  0  0  0
    1.8128   -2.3479    0.0000 F   0  0  0  0  0  0  0  0  0  0  0  0
    3.4628   -2.3479    0.0000 F   0  0  0  0  0  0  0  0  0  0  0  0
  1  2  1  0  0  0  0
  2  3  1  0  0  0  0
  3  4  2  0  0  0  0
  4  5  1  0  0  0  0
  5  6  2  0  0  0  0
  6  7  1  0  0  0  0
  7  8  2  0  0  0  0
  8  9  1  0  0  0  0
  4  9  1  0  0  0  0
  9 10  1  0  0  0  0
  2 10  2  0  0  0  0
  8 11  1  0  0  0  0
 11 12  1  0  0  0  0
 11 13  1  0  0  0  0
 11 14  1  0  0  0  0
M  END
>  <Catalog ID>
Z315899004

>  <PlateID>
1198308-R-SPFL-02

>  <Well>
C03

>  <MW (desalted)>
201.149

>  <ClogP>
1.697

>  <HBD>
0

>  <TPSA>
30.190

>  <RotBonds>
1

$$$$

            

 10 11  0  0  0  0            999 V2000
    3.2789    2.0625    0.0000 O   0  0  0  0  0  0  0  0  0  0  0  0
    3.2789    1.2375    0.0000 C   0  0  0  0  0  0  0  0  0  0  0  0
    3.9934    0.8250    0.0000 N   0  0  0  0  0  0  0  0  0  0  0  0
    3.9934    0.0000    0.0000 C   0  0  0  0  0  0  0  0  0  0  0  0
    3.2789   -0.4125    0.0000 C   0  0  0  0  0  0  0  0  0  0  0  0
    2.5645    0.0000    0.0000 C   0  0  0  0  0  0  0  0  0  0  0  0
    1.7798   -0.2549    0.0000 S   0  0  0  0  0  0  0  0  0  0  0  0
    1.2949    0.4125    0.0000 C   0  0  0  0  0  0  0  0  0  0  0  0
    1.7798    1.0799    0.0000 C   0  0  0  0  0  0  0  0  0  0  0  0
    2.5645    0.8250    0.0000 C   0  0  0  0  0  0  0  0  0  0  0  0
  1  2  2  0  0  0  0
  2  3  1  0  0  0  0
  3  4  1  0  0  0  0
  4  5  1  0  0  0  0
  5  6  1  0  0  0  0
  6  7  1  0  0  0  0
  7  8  1  0  0  0  0
  8  9  2  0  0  0  0
  9 10  1  0  0  0  0
  2 10  1  0  0  0  0
  6 10  2  0  0  0  0
M  END
>  <Catalog ID>
Z1486036948

>  <PlateID>
1198308-R-SPFL-02

>  <Well>
C04

>  <MW (desalted)>
153.202

>  <ClogP>
0.834

>  <HBD>
1

>  <TPSA>
29.100

>  <RotBonds>
0

$$$$

            

 11 11  0  0  0  0            999 V2000
    0.0000    2.4750    0.0000 O   0  0  0  0  0  0  0  0  0  0  0  0
    0.7145    2.0625    0.0000 C   0  0  0  0  0  0  0  0  0  0  0  0
    1.4289    2.4750    0.0000 O   0  0  0  0  0  0  0  0  0  0  0  0
    0.7145    1.2375    0.0000 C   0  0  0  0  0  0  0  0  0  0  0  0
    1.4289    0.8250    0.0000 C   0  0  0  0  0  0  0  0  0  0  0  0
    1.4289   -0.0000    0.0000 C   0  0  0  0  0  0  0  0  0  0  0  0
    0.7145   -0.4125    0.0000 C   0  0  0  0  0  0  0  0  0  0  0  0
    0.7145   -1.2375    0.0000 F   0  0  0  0  0  0  0  0  0  0  0  0
    0.0000    0.0000    0.0000 C   0  0  0  0  0  0  0  0  0  0  0  0
    0.0000    0.8250    0.0000 C   0  0  0  0  0  0  0  0  0  0  0  0
   -0.7145    1.2375    0.0000 F   0  0  0  0  0  0  0  0  0  0  0  0
  1  2  1  0  0  0  0
  2  3  2  0  0  0  0
  2  4  1  0  0  0  0
  4  5  2  0  0  0  0
  5  6  1  0  0  0  0
  6  7  2  0  0  0  0
  7  8  1  0  0  0  0
  7  9  1  0  0  0  0
  9 10  2  0  0  0  0
  4 10  1  0  0  0  0
 10 11  1  0  0  0  0
M  END
>  <Catalog ID>
Z104477622

>  <PlateID>
1198308-R-SPFL-02

>  <Well>
C05

>  <MW (desalted)>
158.102

>  <ClogP>
1.943

>  <HBD>
1

>  <TPSA>
37.300

>  <RotBonds>
1

$$$$

            

 16 18  0  0  0  0            999 V2000
    3.2789    2.0625    0.0000 O   0  0  0  0  0  0  0  0  0  0  0  0
    3.2789    1.2375    0.0000 C   0  0  0  0  0  0  0  0  0  0  0  0
    3.9934    0.8250    0.0000 N   0  0  0  0  0  0  0  0  0  0  0  0
    3.9934    0.0000    0.0000 C   0  0  0  0  0  0  0  0  0  0  0  0
    3.2789   -0.4125    0.0000 N   0  0  0  0  0  0  0  0  0  0  0  0
    2.5645    0.0000    0.0000 C   0  0  0  0  0  0  0  0  0  0  0  0
    1.7798   -0.2549    0.0000 N   0  0  0  0  0  0  0  0  0  0  0  0
    1.2949    0.4125    0.0000 N   0  0  0  0  0  0  0  0  0  0  0  0
    1.7798    1.0799    0.0000 C   0  0  0  0  0  0  0  0  0  0  0  0
    2.5645    0.8250    0.0000 C   0  0  0  0  0  0  0  0  0  0  0  0
    1.5249   -1.0396    0.0000 C   0  0  0  0  0  0  0  0  0  0  0  0
    2.0769   -1.6527    0.0000 C   0  0  0  0  0  0  0  0  0  0  0  0
    1.8220   -2.4373    0.0000 C   0  0  0  0  0  0  0  0  0  0  0  0
    1.0150   -2.6088    0.0000 C   0  0  0  0  0  0  0  0  0  0  0  0
    0.4630   -1.9957    0.0000 C   0  0  0  0  0  0  0  0  0  0  0  0
    0.7179   -1.2111    0.0000 C   0  0  0  0  0  0  0  0  0  0  0  0
  1  2  2  0  0  0  0
  2  3  1  0  0  0  0
  3  4  1  0  0  0  0
  4  5  2  0  0  0  0
  5  6  1  0  0  0  0
  6  7  1  0  0  0  0
  7  8  1  0  0  0  0
  8  9  2  0  0  0  0
  9 10  1  0  0  0  0
  2 10  1  0  0  0  0
  6 10  2  0  0  0  0
  7 11  1  0  0  0  0
 11 12  2  0  0  0  0
 12 13  1  0  0  0  0
 13 14  2  0  0  0  0
 14 15  1  0  0  0  0
 15 16  2  0  0  0  0
 11 16  1  0  0  0  0
M  END
>  <Catalog ID>
Z56823353

>  <PlateID>
1198308-R-SPFL-02

>  <Well>
C06

>  <MW (desalted)>
212.207

>  <ClogP>
0.735

>  <HBD>
1

>  <TPSA>
59.280

>  <RotBonds>
1

$$$$

            

 11 12  0  0  0  0            999 V2000
    0.0000   -1.6500    0.0000 N   0  0  0  0  0  0  0  0  0  0  0  0
    0.7145   -1.2375    0.0000 C   0  0  0  0  0  0  0  0  0  0  0  0
    0.7145   -0.4125    0.0000 C   0  0  0  0  0  0  0  0  0  0  0  0
    1.4289    0.0000    0.0000 N   0  0  0  0  0  0  0  0  0  0  0  0
    2.1434   -0.4125    0.0000 C   0  0  0  0  0  0  0  0  0  0  0  0
    2.8579    0.0000    0.0000 C   0  0  0  0  0  0  0  0  0  0  0  0
    3.5724   -0.4125    0.0000 C   0  0  0  0  0  0  0  0  0  0  0  0
    3.5724   -1.2375    0.0000 C   0  0  0  0  0  0  0  0  0  0  0  0
    2.8579   -1.6500    0.0000 C   0  0  0  0  0  0  0  0  0  0  0  0
    2.1434   -1.2375    0.0000 C   0  0  0  0  0  0  0  0  0  0  0  0
    1.4289   -1.6500    0.0000 N   0  0  0  0  0  0  0  0  0  0  0  0
  1  2  1  0  0  0  0
  2  3  2  0  0  0  0
  3  4  1  0  0  0  0
  4  5  2  0  0  0  0
  5  6  1  0  0  0  0
  6  7  1  0  0  0  0
  7  8  1  0  0  0  0
  8  9  1  0  0  0  0
  9 10  1  0  0  0  0
  5 10  1  0  0  0  0
 10 11  2  0  0  0  0
  2 11  1  0  0  0  0
M  END
>  <Catalog ID>
Z1203641646

>  <PlateID>
1198308-R-SPFL-02

>  <Well>
C07

>  <MW (desalted)>
149.193

>  <ClogP>
1.248

>  <HBD>
1

>  <TPSA>
51.800

>  <RotBonds>
0

$$$$

            

 12 13  0  0  0  0            999 V2000
    0.7145   -2.8875    0.0000 O   0  0  0  0  0  0  0  0  0  0  0  0
    1.4289   -2.4750    0.0000 C   0  0  0  0  0  0  0  0  0  0  0  0
    1.4289   -1.6500    0.0000 C   0  0  0  0  0  0  0  0  0  0  0  0
    0.7145   -1.2375    0.0000 C   0  0  0  0  0  0  0  0  0  0  0  0
    0.7145   -0.4125    0.0000 C   0  0  0  0  0  0  0  0  0  0  0  0
    1.4289    0.0000    0.0000 C   0  0  0  0  0  0  0  0  0  0  0  0
    2.1434   -0.4125    0.0000 C   0  0  0  0  0  0  0  0  0  0  0  0
    2.8579    0.0000    0.0000 C   0  0  0  0  0  0  0  0  0  0  0  0
    3.5724   -0.4125    0.0000 C   0  0  0  0  0  0  0  0  0  0  0  0
    3.5724   -1.2375    0.0000 C   0  0  0  0  0  0  0  0  0  0  0  0
    2.8579   -1.6500    0.0000 N   0  0  0  0  0  0  0  0  0  0  0  0
    2.1434   -1.2375    0.0000 C   0  0  0  0  0  0  0  0  0  0  0  0
  1  2  1  0  0  0  0
  2  3  1  0  0  0  0
  3  4  1  0  0  0  0
  4  5  1  0  0  0  0
  5  6  1  0  0  0  0
  6  7  1  0  0  0  0
  7  8  2  0  0  0  0
  8  9  1  0  0  0  0
  9 10  2  0  0  0  0
 10 11  1  0  0  0  0
 11 12  2  0  0  0  0
  3 12  1  0  0  0  0
  7 12  1  0  0  0  0
M  END
>  <Catalog ID>
Z1216823106

>  <PlateID>
1198308-R-SPFL-02

>  <Well>
C08

>  <MW (desalted)>
163.216

>  <ClogP>
0.899

>  <HBD>
1

>  <TPSA>
33.120

>  <RotBonds>
1

$$$$

            

 11 12  0  0  0  0            999 V2000
    0.0000   -1.6500    0.0000 O   0  0  0  0  0  0  0  0  0  0  0  0
    0.7145   -1.2375    0.0000 C   0  0  0  0  0  0  0  0  0  0  0  0
    0.7145   -0.4125    0.0000 C   0  0  0  0  0  0  0  0  0  0  0  0
    1.4289    0.0000    0.0000 C   0  0  0  0  0  0  0  0  0  0  0  0
    2.1434   -0.4125    0.0000 C   0  0  0  0  0  0  0  0  0  0  0  0
    2.8579    0.0000    0.0000 C   0  0  0  0  0  0  0  0  0  0  0  0
    3.5724   -0.4125    0.0000 C   0  0  0  0  0  0  0  0  0  0  0  0
    3.5724   -1.2375    0.0000 C   0  0  0  0  0  0  0  0  0  0  0  0
    2.8579   -1.6500    0.0000 N   0  0  0  0  0  0  0  0  0  0  0  0
    2.1434   -1.2375    0.0000 C   0  0  0  0  0  0  0  0  0  0  0  0
    1.4289   -1.6500    0.0000 N   0  0  0  0  0  0  0  0  0  0  0  0
  1  2  2  0  0  0  0
  2  3  1  0  0  0  0
  3  4  1  0  0  0  0
  4  5  1  0  0  0  0
  5  6  2  0  0  0  0
  6  7  1  0  0  0  0
  7  8  2  0  0  0  0
  8  9  1  0  0  0  0
  9 10  2  0  0  0  0
  5 10  1  0  0  0  0
 10 11  1  0  0  0  0
  2 11  1  0  0  0  0
M  END
>  <Catalog ID>
Z1198165841

>  <PlateID>
1198308-R-SPFL-02

>  <Well>
C09

>  <MW (desalted)>
148.162

>  <ClogP>
0.627

>  <HBD>
1

>  <TPSA>
41.990

>  <RotBonds>
0

$$$$

            

 11 10  0  0  0  0            999 V2000
    0.0000    0.0000    0.0000 Cl  0  0  0  0  0  0  0  0  0  0  0  0
    3.0716    1.7325    0.0000 F   0  0  0  0  0  0  0  0  0  0  0  0
    3.0716    0.9075    0.0000 C   0  0  0  0  0  0  0  0  0  0  0  0
    2.2466    0.9075    0.0000 F   0  0  0  0  0  0  0  0  0  0  0  0
    3.8966    0.9075    0.0000 F   0  0  0  0  0  0  0  0  0  0  0  0
    3.0716    0.0825    0.0000 C   0  0  0  0  0  0  0  0  0  0  0  0
    3.7861   -0.3300    0.0000 C   0  0  0  0  0  0  0  0  0  0  0  0
    3.7861   -1.1550    0.0000 O   0  0  0  0  0  0  0  0  0  0  0  0
    3.0716   -1.5675    0.0000 C   0  0  0  0  0  0  0  0  0  0  0  0
    2.3571   -1.1550    0.0000 C   0  0  0  0  0  0  0  0  0  0  0  0
    2.3571   -0.3300    0.0000 N   0  0  0  0  0  0  0  0  0  0  0  0
  2  3  1  0  0  0  0
  3  4  1  0  0  0  0
  3  5  1  0  0  0  0
  3  6  1  0  0  0  0
  6  7  1  0  0  0  0
  7  8  1  0  0  0  0
  8  9  1  0  0  0  0
  9 10  1  0  0  0  0
 10 11  1  0  0  0  0
  6 11  1  0  0  0  0
M  END
>  <Catalog ID>
Z1415893871

>  <PlateID>
1198308-R-SPFL-02

>  <Well>
C10

>  <MW (desalted)>
155.118

>  <ClogP>
0.635

>  <HBD>
1

>  <TPSA>
21.260

>  <RotBonds>
1

$$$$

            

 15 16  0  0  0  0            999 V2000
    1.4289    0.0000    0.0000 N   0  0  0  0  0  0  0  0  0  0  0  0
    2.1434   -0.4125    0.0000 C   0  0  0  0  0  0  0  0  0  0  0  0
    2.1434   -1.2375    0.0000 C   0  0  0  0  0  0  0  0  0  0  0  0
    2.8579   -1.6500    0.0000 C   0  0  0  0  0  0  0  0  0  0  0  0
    2.8579   -2.4750    0.0000 C   0  0  0  0  0  0  0  0  0  0  0  0
    2.1434   -2.8875    0.0000 N   0  0  0  0  0  0  0  0  0  0  0  0
    2.1434   -3.7125    0.0000 C   0  0  0  0  0  0  0  0  0  0  0  0
    1.4289   -4.1250    0.0000 C   0  0  0  0  0  0  0  0  0  0  0  0
    1.4289   -4.9500    0.0000 C   0  0  0  0  0  0  0  0  0  0  0  0
    0.7145   -5.3625    0.0000 C   0  0  0  0  0  0  0  0  0  0  0  0
   -0.0000   -4.9500    0.0000 C   0  0  0  0  0  0  0  0  0  0  0  0
    0.0000   -4.1250    0.0000 C   0  0  0  0  0  0  0  0  0  0  0  0
    0.7145   -3.7125    0.0000 C   0  0  0  0  0  0  0  0  0  0  0  0
    1.4289   -2.4750    0.0000 C   0  0  0  0  0  0  0  0  0  0  0  0
    1.4289   -1.6500    0.0000 C   0  0  0  0  0  0  0  0  0  0  0  0
  1  2  1  0  0  0  0
  2  3  1  0  0  0  0
  3  4  1  0  0  0  0
  4  5  1  0  0  0  0
  5  6  1  0  0  0  0
  6  7  1  0  0  0  0
  7  8  1  0  0  0  0
  8  9  2  0  0  0  0
  9 10  1  0  0  0  0
 10 11  2  0  0  0  0
 11 12  1  0  0  0  0
 12 13  2  0  0  0  0
  8 13  1  0  0  0  0
  6 14  1  0  0  0  0
 14 15  1  0  0  0  0
  3 15  1  0  0  0  0
M  END
>  <Catalog ID>
Z326203048

>  <PlateID>
1198308-R-SPFL-02

>  <Well>
C11

>  <MW (desalted)>
204.311

>  <ClogP>
1.801

>  <HBD>
1

>  <TPSA>
29.260

>  <RotBonds>
3

$$$$

            

 11 10  0  0  0  0            999 V2000
    0.0000    0.0000    0.0000 Cl  0  0  0  0  0  0  0  0  0  0  0  0
    3.8330    1.1599    0.0000 C   0  0  0  0  0  0  0  0  0  0  0  0
    3.8330    0.3349    0.0000 C   0  0  0  0  0  0  0  0  0  0  0  0
    4.5005   -0.1500    0.0000 C   0  0  0  0  0  0  0  0  0  0  0  0
    5.2851    0.1049    0.0000 N   0  0  0  0  0  0  0  0  0  0  0  0
    4.2455   -0.9347    0.0000 C   0  0  0  0  0  0  0  0  0  0  0  0
    3.4205   -0.9347    0.0000 N   0  0  0  0  0  0  0  0  0  0  0  0
    3.1656   -0.1500    0.0000 N   0  0  0  0  0  0  0  0  0  0  0  0
    2.3810    0.1049    0.0000 C   0  0  0  0  0  0  0  0  0  0  0  0
    1.7679   -0.4471    0.0000 F   0  0  0  0  0  0  0  0  0  0  0  0
    2.2094    0.9119    0.0000 F   0  0  0  0  0  0  0  0  0  0  0  0
  2  3  1  0  0  0  0
  3  4  2  0  0  0  0
  4  5  1  0  0  0  0
  4  6  1  0  0  0  0
  6  7  2  0  0  0  0
  7  8  1  0  0  0  0
  3  8  1  0  0  0  0
  8  9  1  0  0  0  0
  9 10  1  0  0  0  0
  9 11  1  0  0  0  0
M  END
>  <Catalog ID>
Z2106603123

>  <PlateID>
1198308-R-SPFL-02

>  <Well>
D02

>  <MW (desalted)>
147.126

>  <ClogP>
-0.013

>  <HBD>
1

>  <TPSA>
43.840

>  <RotBonds>
1

$$$$

            

 11 11  0  0  0  0            999 V2000
    0.7145    2.8875    0.0000 N   0  0  0  0  0  0  0  0  0  0  0  0
    0.7145    2.0625    0.0000 S   0  0  0  0  0  0  0  0  0  0  0  0
   -0.1105    2.0625    0.0000 O   0  0  0  0  0  0  0  0  0  0  0  0
    1.5395    2.0625    0.0000 O   0  0  0  0  0  0  0  0  0  0  0  0
    0.7145    1.2375    0.0000 C   0  0  0  0  0  0  0  0  0  0  0  0
    1.4289    0.8250    0.0000 C   0  0  0  0  0  0  0  0  0  0  0  0
    1.4289   -0.0000    0.0000 C   0  0  0  0  0  0  0  0  0  0  0  0
    0.7145   -0.4125    0.0000 C   0  0  0  0  0  0  0  0  0  0  0  0
    0.7145   -1.2375    0.0000 F   0  0  0  0  0  0  0  0  0  0  0  0
    0.0000    0.0000    0.0000 C   0  0  0  0  0  0  0  0  0  0  0  0
    0.0000    0.8250    0.0000 C   0  0  0  0  0  0  0  0  0  0  0  0
  1  2  1  0  0  0  0
  2  3  2  0  0  0  0
  2  4  2  0  0  0  0
  2  5  1  0  0  0  0
  5  6  2  0  0  0  0
  6  7  1  0  0  0  0
  7  8  2  0  0  0  0
  8  9  1  0  0  0  0
  8 10  1  0  0  0  0
 10 11  2  0  0  0  0
  5 11  1  0  0  0  0
M  END
>  <Catalog ID>
Z45415567

>  <PlateID>
1198308-R-SPFL-02

>  <Well>
D03

>  <MW (desalted)>
175.181

>  <ClogP>
0.694

>  <HBD>
1

>  <TPSA>
60.160

>  <RotBonds>
1

$$$$

            

 13 14  0  0  0  0            999 V2000
    0.3224    5.7647    0.0000 C   0  0  0  0  0  0  0  0  0  0  0  0
    0.8073    5.0973    0.0000 N   0  0  0  0  0  0  0  0  0  0  0  0
    1.6323    5.0973    0.0000 C   0  0  0  0  0  0  0  0  0  0  0  0
    1.8873    4.3127    0.0000 C   0  0  0  0  0  0  0  0  0  0  0  0
    2.6719    4.0577    0.0000 C   0  0  0  0  0  0  0  0  0  0  0  0
    2.8434    3.2507    0.0000 O   0  0  0  0  0  0  0  0  0  0  0  0
    3.2850    4.6098    0.0000 O   0  0  0  0  0  0  0  0  0  0  0  0
    1.2198    3.8277    0.0000 C   0  0  0  0  0  0  0  0  0  0  0  0
    0.5524    4.3127    0.0000 N   0  0  0  0  0  0  0  0  0  0  0  0
    1.2198    3.0027    0.0000 C   0  0  0  0  0  0  0  0  0  0  0  0
    1.8032    2.4194    0.0000 C   0  0  0  0  0  0  0  0  0  0  0  0
    1.2198    1.8360    0.0000 C   0  0  0  0  0  0  0  0  0  0  0  0
    0.6365    2.4194    0.0000 C   0  0  0  0  0  0  0  0  0  0  0  0
  1  2  1  0  0  0  0
  2  3  1  0  0  0  0
  3  4  2  0  0  0  0
  4  5  1  0  0  0  0
  5  6  2  0  0  0  0
  5  7  1  0  0  0  0
  4  8  1  0  0  0  0
  8  9  2  0  0  0  0
  2  9  1  0  0  0  0
  8 10  1  0  0  0  0
 10 11  1  0  0  0  0
 11 12  1  0  0  0  0
 12 13  1  0  0  0  0
 10 13  1  0  0  0  0
M  END
>  <Catalog ID>
Z1504681185

>  <PlateID>
1198308-R-SPFL-02

>  <Well>
D04

>  <MW (desalted)>
180.204

>  <ClogP>
0.433

>  <HBD>
1

>  <TPSA>
55.120

>  <RotBonds>
2

$$$$

            

 13 14  0  0  0  0            999 V2000
    0.8838   -2.1500    0.0000 C   0  0  0  0  0  0  0  0  0  0  0  0
    1.1387   -1.3654    0.0000 N   0  0  0  0  0  0  0  0  0  0  0  0
    0.6538   -0.6979    0.0000 N   0  0  0  0  0  0  0  0  0  0  0  0
    1.1387   -0.0305    0.0000 C   0  0  0  0  0  0  0  0  0  0  0  0
    1.9233   -0.2854    0.0000 C   0  0  0  0  0  0  0  0  0  0  0  0
    2.6378    0.1271    0.0000 C   0  0  0  0  0  0  0  0  0  0  0  0
    3.3523   -0.2854    0.0000 C   0  0  0  0  0  0  0  0  0  0  0  0
    3.3523   -1.1104    0.0000 C   0  0  0  0  0  0  0  0  0  0  0  0
    2.6378   -1.5229    0.0000 C   0  0  0  0  0  0  0  0  0  0  0  0
    1.9233   -1.1104    0.0000 C   0  0  0  0  0  0  0  0  0  0  0  0
    4.0668   -1.5229    0.0000 C   0  0  0  0  0  0  0  0  0  0  0  0
    4.7812   -1.1104    0.0000 O   0  0  0  0  0  0  0  0  0  0  0  0
    4.0668   -2.3479    0.0000 O   0  0  0  0  0  0  0  0  0  0  0  0
  1  2  1  0  0  0  0
  2  3  1  0  0  0  0
  3  4  2  0  0  0  0
  4  5  1  0  0  0  0
  5  6  1  0  0  0  0
  6  7  1  0  0  0  0
  7  8  1  0  0  0  0
  8  9  1  0  0  0  0
  9 10  1  0  0  0  0
  5 10  2  0  0  0  0
  2 10  1  0  0  0  0
  8 11  1  0  0  0  0
 11 12  2  0  0  0  0
 11 13  1  0  0  0  0
M  END
>  <Catalog ID>
Z1914877829

>  <PlateID>
1198308-R-SPFL-02

>  <Well>
D05

>  <MW (desalted)>
180.204

>  <ClogP>
0.002

>  <HBD>
1

>  <TPSA>
55.120

>  <RotBonds>
1

$$$$

            

 12 10  0  0  0  0            999 V2000
    0.0000    0.0000    0.0000 Cl  0  0  0  0  0  0  0  0  0  0  0  0
    2.0036    0.0000    0.0000 Cl  0  0  0  0  0  0  0  0  0  0  0  0
   -0.6430   -1.6500    0.0000 C   0  0  0  0  0  0  0  0  0  0  0  0
   -0.6430   -2.4750    0.0000 N   0  0  0  0  0  0  0  0  0  0  0  0
    0.0714   -2.8875    0.0000 C   0  0  0  0  0  0  0  0  0  0  0  0
    0.7859   -2.4750    0.0000 C   0  0  0  0  0  0  0  0  0  0  0  0
    0.0714   -3.7125    0.0000 C   0  0  0  0  0  0  0  0  0  0  0  0
    0.7859   -4.1250    0.0000 C   0  0  0  0  0  0  0  0  0  0  0  0
    0.7859   -4.9500    0.0000 C   0  0  0  0  0  0  0  0  0  0  0  0
    0.0714   -5.3625    0.0000 C   0  0  0  0  0  0  0  0  0  0  0  0
   -0.6430   -4.9500    0.0000 N   0  0  0  0  0  0  0  0  0  0  0  0
   -0.6430   -4.1250    0.0000 C   0  0  0  0  0  0  0  0  0  0  0  0
  3  4  1  0  0  0  0
  4  5  1  0  0  0  0
  5  6  1  0  0  0  0
  5  7  1  0  0  0  0
  7  8  2  0  0  0  0
  8  9  1  0  0  0  0
  9 10  2  0  0  0  0
 10 11  1  0  0  0  0
 11 12  2  0  0  0  0
  7 12  1  0  0  0  0
M  END
>  <Catalog ID>
Z451350188

>  <PlateID>
1198308-R-SPFL-02

>  <Well>
D06

>  <MW (desalted)>
136.194

>  <ClogP>
0.322

>  <HBD>
1

>  <TPSA>
24.920

>  <RotBonds>
2

$$$$

            

 16 16  0  0  0  0            999 V2000
    0.0000    0.0000    0.0000 Cl  0  0  0  0  0  0  0  0  0  0  0  0
    6.1725    1.8700    0.0000 N   0  0  0  0  0  0  0  0  0  0  0  0
    5.4581    1.4575    0.0000 C   0  0  0  0  0  0  0  0  0  0  0  0
    5.4581    0.6325    0.0000 C   0  0  0  0  0  0  0  0  0  0  0  0
    6.1725    0.2200    0.0000 C   0  0  0  0  0  0  0  0  0  0  0  0
    6.1725   -0.6050    0.0000 C   0  0  0  0  0  0  0  0  0  0  0  0
    5.4581   -1.0175    0.0000 N   0  0  0  0  0  0  0  0  0  0  0  0
    4.7436   -0.6050    0.0000 C   0  0  0  0  0  0  0  0  0  0  0  0
    4.0291   -1.0175    0.0000 O   0  0  0  0  0  0  0  0  0  0  0  0
    3.3147   -0.6050    0.0000 C   0  0  0  0  0  0  0  0  0  0  0  0
    2.6002   -1.0175    0.0000 C   0  0  0  0  0  0  0  0  0  0  0  0
    1.8857   -0.6050    0.0000 C   0  0  0  0  0  0  0  0  0  0  0  0
    1.8857    0.2200    0.0000 C   0  0  0  0  0  0  0  0  0  0  0  0
    2.6002    0.6325    0.0000 C   0  0  0  0  0  0  0  0  0  0  0  0
    3.3147    0.2200    0.0000 C   0  0  0  0  0  0  0  0  0  0  0  0
    4.7436    0.2200    0.0000 C   0  0  0  0  0  0  0  0  0  0  0  0
  2  3  1  0  0  0  0
  3  4  1  0  0  0  0
  4  5  2  0  0  0  0
  5  6  1  0  0  0  0
  6  7  2  0  0  0  0
  7  8  1  0  0  0  0
  8  9  1  0  0  0  0
  9 10  1  0  0  0  0
 10 11  2  0  0  0  0
 11 12  1  0  0  0  0
 12 13  2  0  0  0  0
 13 14  1  0  0  0  0
 14 15  2  0  0  0  0
 10 15  1  0  0  0  0
  8 16  2  0  0  0  0
  4 16  1  0  0  0  0
M  END
>  <Catalog ID>
Z2404983489

>  <PlateID>
1198308-R-SPFL-02

>  <Well>
D07

>  <MW (desalted)>
200.236

>  <ClogP>
1.695

>  <HBD>
1

>  <TPSA>
48.140

>  <RotBonds>
3

$$$$

            

 11 11  0  0  0  0            999 V2000
    0.7145    2.0625    0.0000 N   0  0  0  0  0  0  0  0  0  0  0  0
    0.7145    1.2375    0.0000 C   0  0  0  0  0  0  0  0  0  0  0  0
    1.4289    0.8250    0.0000 C   0  0  0  0  0  0  0  0  0  0  0  0
    1.4289   -0.0000    0.0000 N   0  0  0  0  0  0  0  0  0  0  0  0
    0.7145   -0.4125    0.0000 C   0  0  0  0  0  0  0  0  0  0  0  0
    0.0000    0.0000    0.0000 N   0  0  0  0  0  0  0  0  0  0  0  0
    0.0000    0.8250    0.0000 C   0  0  0  0  0  0  0  0  0  0  0  0
    0.7145   -1.2375    0.0000 C   0  0  0  0  0  0  0  0  0  0  0  0
    0.7145   -2.0625    0.0000 F   0  0  0  0  0  0  0  0  0  0  0  0
   -0.1105   -1.2375    0.0000 F   0  0  0  0  0  0  0  0  0  0  0  0
    1.5395   -1.2375    0.0000 F   0  0  0  0  0  0  0  0  0  0  0  0
  1  2  1  0  0  0  0
  2  3  2  0  0  0  0
  3  4  1  0  0  0  0
  4  5  2  0  0  0  0
  5  6  1  0  0  0  0
  6  7  2  0  0  0  0
  2  7  1  0  0  0  0
  5  8  1  0  0  0  0
  8  9  1  0  0  0  0
  8 10  1  0  0  0  0
  8 11  1  0  0  0  0
M  END
>  <Catalog ID>
Z1198223564

>  <PlateID>
1198308-R-SPFL-02

>  <Well>
D08

>  <MW (desalted)>
163.101

>  <ClogP>
0.639

>  <HBD>
1

>  <TPSA>
51.800

>  <RotBonds>
1

$$$$

            

 11 11  0  0  0  0            999 V2000
    0.7145    2.0625    0.0000 N   0  0  0  0  0  0  0  0  0  0  0  0
    0.7145    1.2375    0.0000 C   0  0  0  0  0  0  0  0  0  0  0  0
    1.4289    0.8250    0.0000 N   0  0  0  0  0  0  0  0  0  0  0  0
    1.4289   -0.0000    0.0000 C   0  0  0  0  0  0  0  0  0  0  0  0
    0.7145   -0.4125    0.0000 C   0  0  0  0  0  0  0  0  0  0  0  0
    0.0000    0.0000    0.0000 C   0  0  0  0  0  0  0  0  0  0  0  0
    0.0000    0.8250    0.0000 N   0  0  0  0  0  0  0  0  0  0  0  0
    0.7145   -1.2375    0.0000 C   0  0  0  0  0  0  0  0  0  0  0  0
    0.7145   -2.0625    0.0000 F   0  0  0  0  0  0  0  0  0  0  0  0
   -0.1105   -1.2375    0.0000 F   0  0  0  0  0  0  0  0  0  0  0  0
    1.5395   -1.2375    0.0000 F   0  0  0  0  0  0  0  0  0  0  0  0
  1  2  1  0  0  0  0
  2  3  2  0  0  0  0
  3  4  1  0  0  0  0
  4  5  2  0  0  0  0
  5  6  1  0  0  0  0
  6  7  2  0  0  0  0
  2  7  1  0  0  0  0
  5  8  1  0  0  0  0
  8  9  1  0  0  0  0
  8 10  1  0  0  0  0
  8 11  1  0  0  0  0
M  END
>  <Catalog ID>
Z1198277063

>  <PlateID>
1198308-R-SPFL-02

>  <Well>
D09

>  <MW (desalted)>
163.101

>  <ClogP>
0.639

>  <HBD>
1

>  <TPSA>
51.800

>  <RotBonds>
1

$$$$

            

 11 12  0  0  0  0            999 V2000
    0.5057    2.4958    0.0000 O   0  0  0  0  0  0  0  0  0  0  0  0
    1.1188    1.9438    0.0000 C   0  0  0  0  0  0  0  0  0  0  0  0
    0.9473    1.1368    0.0000 O   0  0  0  0  0  0  0  0  0  0  0  0
    1.9034    2.1987    0.0000 C   0  0  0  0  0  0  0  0  0  0  0  0
    2.1584    2.9834    0.0000 O   0  0  0  0  0  0  0  0  0  0  0  0
    2.9834    2.9834    0.0000 C   0  0  0  0  0  0  0  0  0  0  0  0
    3.2383    2.1987    0.0000 N   0  0  0  0  0  0  0  0  0  0  0  0
    2.5709    1.7138    0.0000 C   0  0  0  0  0  0  0  0  0  0  0  0
    2.5709    0.8888    0.0000 C   0  0  0  0  0  0  0  0  0  0  0  0
    2.9834    0.1743    0.0000 C   0  0  0  0  0  0  0  0  0  0  0  0
    2.1584    0.1743    0.0000 C   0  0  0  0  0  0  0  0  0  0  0  0
  1  2  1  0  0  0  0
  2  3  2  0  0  0  0
  2  4  1  0  0  0  0
  4  5  1  0  0  0  0
  5  6  1  0  0  0  0
  6  7  2  0  0  0  0
  7  8  1  0  0  0  0
  4  8  2  0  0  0  0
  8  9  1  0  0  0  0
  9 10  1  0  0  0  0
 10 11  1  0  0  0  0
  9 11  1  0  0  0  0
M  END
>  <Catalog ID>
Z2047963068

>  <PlateID>
1198308-R-SPFL-02

>  <Well>
D10

>  <MW (desalted)>
153.135

>  <ClogP>
-0.412

>  <HBD>
1

>  <TPSA>
63.330

>  <RotBonds>
2

$$$$

            

 10 10  0  0  0  0            999 V2000
    1.2822    2.3518    0.0000 C   0  0  0  0  0  0  0  0  0  0  0  0
    0.5678    1.9393    0.0000 O   0  0  0  0  0  0  0  0  0  0  0  0
    0.5678    1.1143    0.0000 C   0  0  0  0  0  0  0  0  0  0  0  0
    1.2352    0.6294    0.0000 C   0  0  0  0  0  0  0  0  0  0  0  0
    0.9803   -0.1553    0.0000 C   0  0  0  0  0  0  0  0  0  0  0  0
    0.1553   -0.1553    0.0000 S   0  0  0  0  0  0  0  0  0  0  0  0
   -0.0997    0.6294    0.0000 C   0  0  0  0  0  0  0  0  0  0  0  0
   -0.8843    0.8843    0.0000 C   0  0  0  0  0  0  0  0  0  0  0  0
   -1.4974    0.3323    0.0000 O   0  0  0  0  0  0  0  0  0  0  0  0
   -1.0558    1.6913    0.0000 O   0  0  0  0  0  0  0  0  0  0  0  0
  1  2  1  0  0  0  0
  2  3  1  0  0  0  0
  3  4  1  0  0  0  0
  4  5  2  0  0  0  0
  5  6  1  0  0  0  0
  6  7  1  0  0  0  0
  3  7  2  0  0  0  0
  7  8  1  0  0  0  0
  8  9  2  0  0  0  0
  8 10  1  0  0  0  0
M  END
>  <Catalog ID>
Z1124707084

>  <PlateID>
1198308-R-SPFL-02

>  <Well>
D11

>  <MW (desalted)>
158.175

>  <ClogP>
1.323

>  <HBD>
1

>  <TPSA>
46.530

>  <RotBonds>
2

$$$$

            

 12 11  0  0  0  0            999 V2000
    0.0000    0.0000    0.0000 Cl  0  0  0  0  0  0  0  0  0  0  0  0
    2.0036    0.0000    0.0000 Cl  0  0  0  0  0  0  0  0  0  0  0  0
   -1.0804   -3.9271    0.0000 N   0  0  0  0  0  0  0  0  0  0  0  0
   -0.8255   -3.1424    0.0000 C   0  0  0  0  0  0  0  0  0  0  0  0
   -1.3104   -2.4750    0.0000 C   0  0  0  0  0  0  0  0  0  0  0  0
   -0.8255   -1.8076    0.0000 N   0  0  0  0  0  0  0  0  0  0  0  0
   -0.0408   -2.0625    0.0000 N   0  0  0  0  0  0  0  0  0  0  0  0
    0.6736   -1.6500    0.0000 C   0  0  0  0  0  0  0  0  0  0  0  0
    1.3881   -2.0625    0.0000 C   0  0  0  0  0  0  0  0  0  0  0  0
    1.3881   -2.8875    0.0000 C   0  0  0  0  0  0  0  0  0  0  0  0
    0.6736   -3.3000    0.0000 C   0  0  0  0  0  0  0  0  0  0  0  0
   -0.0408   -2.8875    0.0000 C   0  0  0  0  0  0  0  0  0  0  0  0
  3  4  1  0  0  0  0
  4  5  1  0  0  0  0
  5  6  2  0  0  0  0
  6  7  1  0  0  0  0
  7  8  1  0  0  0  0
  8  9  2  0  0  0  0
  9 10  1  0  0  0  0
 10 11  2  0  0  0  0
 11 12  1  0  0  0  0
  4 12  2  0  0  0  0
  7 12  1  0  0  0  0
M  END
>  <Catalog ID>
Z3243651354

>  <PlateID>
1198308-R-SPFL-02

>  <Well>
E02

>  <MW (desalted)>
133.151

>  <ClogP>
0.700

>  <HBD>
1

>  <TPSA>
43.320

>  <RotBonds>
0

$$$$

            

 10 11  0  0  0  0            999 V2000
    0.0000    0.8250    0.0000 C   0  0  0  0  0  0  0  0  0  0  0  0
    0.7846    1.0799    0.0000 C   0  0  0  0  0  0  0  0  0  0  0  0
    1.2695    0.4125    0.0000 C   0  0  0  0  0  0  0  0  0  0  0  0
    0.7846   -0.2549    0.0000 C   0  0  0  0  0  0  0  0  0  0  0  0
   -0.0000    0.0000    0.0000 N   0  0  0  0  0  0  0  0  0  0  0  0
    1.6820    1.1270    0.0000 C   0  0  0  0  0  0  0  0  0  0  0  0
    2.5070    1.1270    0.0000 C   0  0  0  0  0  0  0  0  0  0  0  0
    2.9195    0.4125    0.0000 O   0  0  0  0  0  0  0  0  0  0  0  0
    2.5070   -0.3020    0.0000 C   0  0  0  0  0  0  0  0  0  0  0  0
    1.6820   -0.3020    0.0000 C   0  0  0  0  0  0  0  0  0  0  0  0
  1  2  1  0  0  0  0
  2  3  1  0  0  0  0
  3  4  1  0  0  0  0
  4  5  1  0  0  0  0
  1  5  1  0  0  0  0
  3  6  1  0  0  0  0
  6  7  1  0  0  0  0
  7  8  1  0  0  0  0
  8  9  1  0  0  0  0
  9 10  1  0  0  0  0
  3 10  1  0  0  0  0
M  END
>  <Catalog ID>
Z979421342

>  <PlateID>
1198308-R-SPFL-02

>  <Well>
E03

>  <MW (desalted)>
141.211

>  <ClogP>
-0.032

>  <HBD>
1

>  <TPSA>
21.260

>  <RotBonds>
0

$$$$

            

 13 14  0  0  0  0            999 V2000
    0.7145   -0.4125    0.0000 N   0  0  0  0  0  0  0  0  0  0  0  0
    0.7145   -1.2375    0.0000 C   0  0  0  0  0  0  0  0  0  0  0  0
    1.3819   -1.7224    0.0000 N   0  0  0  0  0  0  0  0  0  0  0  0
    1.1270   -2.5070    0.0000 C   0  0  0  0  0  0  0  0  0  0  0  0
    0.3020   -2.5070    0.0000 N   0  0  0  0  0  0  0  0  0  0  0  0
    0.0470   -1.7224    0.0000 N   0  0  0  0  0  0  0  0  0  0  0  0
   -0.1830   -3.1745    0.0000 C   0  0  0  0  0  0  0  0  0  0  0  0
    0.1526   -3.9282    0.0000 C   0  0  0  0  0  0  0  0  0  0  0  0
   -0.3323   -4.5956    0.0000 C   0  0  0  0  0  0  0  0  0  0  0  0
   -1.1528   -4.5094    0.0000 C   0  0  0  0  0  0  0  0  0  0  0  0
   -1.6377   -5.1768    0.0000 F   0  0  0  0  0  0  0  0  0  0  0  0
   -1.4884   -3.7557    0.0000 C   0  0  0  0  0  0  0  0  0  0  0  0
   -1.0034   -3.0882    0.0000 C   0  0  0  0  0  0  0  0  0  0  0  0
  1  2  1  0  0  0  0
  2  3  1  0  0  0  0
  3  4  2  0  0  0  0
  4  5  1  0  0  0  0
  5  6  1  0  0  0  0
  2  6  2  0  0  0  0
  5  7  1  0  0  0  0
  7  8  2  0  0  0  0
  8  9  1  0  0  0  0
  9 10  2  0  0  0  0
 10 11  1  0  0  0  0
 10 12  1  0  0  0  0
 12 13  2  0  0  0  0
  7 13  1  0  0  0  0
M  END
>  <Catalog ID>
Z2235790608

>  <PlateID>
1198308-R-SPFL-02

>  <Well>
E04

>  <MW (desalted)>
178.166

>  <ClogP>
1.059

>  <HBD>
1

>  <TPSA>
56.730

>  <RotBonds>
1

$$$$

            

 11 12  0  0  0  0            999 V2000
    0.0000   -0.0000    0.0000 C   0  0  0  0  0  0  0  0  0  0  0  0
    0.7145   -0.4125    0.0000 C   0  0  0  0  0  0  0  0  0  0  0  0
    1.4289    0.0000    0.0000 C   0  0  0  0  0  0  0  0  0  0  0  0
    2.1434   -0.4125    0.0000 C   0  0  0  0  0  0  0  0  0  0  0  0
    2.8579    0.0000    0.0000 C   0  0  0  0  0  0  0  0  0  0  0  0
    3.5724   -0.4125    0.0000 C   0  0  0  0  0  0  0  0  0  0  0  0
    3.5724   -1.2375    0.0000 C   0  0  0  0  0  0  0  0  0  0  0  0
    2.8579   -1.6500    0.0000 C   0  0  0  0  0  0  0  0  0  0  0  0
    2.1434   -1.2375    0.0000 C   0  0  0  0  0  0  0  0  0  0  0  0
    1.4289   -1.6500    0.0000 C   0  0  0  0  0  0  0  0  0  0  0  0
    0.7145   -1.2375    0.0000 N   0  0  0  0  0  0  0  0  0  0  0  0
  1  2  1  0  0  0  0
  2  3  1  0  0  0  0
  3  4  1  0  0  0  0
  4  5  2  0  0  0  0
  5  6  1  0  0  0  0
  6  7  2  0  0  0  0
  7  8  1  0  0  0  0
  8  9  2  0  0  0  0
  4  9  1  0  0  0  0
  9 10  1  0  0  0  0
 10 11  1  0  0  0  0
  2 11  1  0  0  0  0
M  END
>  <Catalog ID>
Z979717380

>  <PlateID>
1198308-R-SPFL-02

>  <Well>
E05

>  <MW (desalted)>
147.217

>  <ClogP>
2.114

>  <HBD>
1

>  <TPSA>
12.030

>  <RotBonds>
0

$$$$

            

 14 16  0  0  0  0            999 V2000
    3.1028    0.9789    0.0000 C   0  0  0  0  0  0  0  0  0  0  0  0
    3.9277    0.9881    0.0000 N   0  0  0  0  0  0  0  0  0  0  0  0
    4.4493    0.3489    0.0000 C   0  0  0  0  0  0  0  0  0  0  0  0
    5.2349    0.6008    0.0000 C   0  0  0  0  0  0  0  0  0  0  0  0
    5.8459    0.0465    0.0000 C   0  0  0  0  0  0  0  0  0  0  0  0
    5.6713   -0.7598    0.0000 C   0  0  0  0  0  0  0  0  0  0  0  0
    4.8857   -1.0118    0.0000 C   0  0  0  0  0  0  0  0  0  0  0  0
    4.2747   -0.4575    0.0000 C   0  0  0  0  0  0  0  0  0  0  0  0
    3.5354   -0.8237    0.0000 C   0  0  0  0  0  0  0  0  0  0  0  0
    2.7882   -0.4741    0.0000 N   0  0  0  0  0  0  0  0  0  0  0  0
    2.0847   -0.9051    0.0000 N   0  0  0  0  0  0  0  0  0  0  0  0
    1.4574   -0.3693    0.0000 N   0  0  0  0  0  0  0  0  0  0  0  0
    1.7732    0.3929    0.0000 C   0  0  0  0  0  0  0  0  0  0  0  0
    2.5956    0.3281    0.0000 C   0  0  0  0  0  0  0  0  0  0  0  0
  1  2  1  0  0  0  0
  2  3  1  0  0  0  0
  3  4  2  0  0  0  0
  4  5  1  0  0  0  0
  5  6  2  0  0  0  0
  6  7  1  0  0  0  0
  7  8  2  0  0  0  0
  3  8  1  0  0  0  0
  8  9  1  0  0  0  0
  9 10  1  0  0  0  0
 10 11  1  0  0  0  0
 11 12  2  0  0  0  0
 12 13  1  0  0  0  0
 13 14  2  0  0  0  0
  1 14  1  0  0  0  0
 10 14  1  0  0  0  0
M  END
>  <Catalog ID>
Z1262595204

>  <PlateID>
1198308-R-SPFL-02

>  <Well>
E06

>  <MW (desalted)>
186.213

>  <ClogP>
0.313

>  <HBD>
1

>  <TPSA>
42.740

>  <RotBonds>
0

$$$$

            

 11 12  0  0  0  0            999 V2000
    1.2564   -0.1802    0.0000 C   0  0  0  0  0  0  0  0  0  0  0  0
    1.2564   -1.0052    0.0000 N   0  0  0  0  0  0  0  0  0  0  0  0
    1.9239   -1.4901    0.0000 C   0  0  0  0  0  0  0  0  0  0  0  0
    1.6689   -2.2748    0.0000 C   0  0  0  0  0  0  0  0  0  0  0  0
    0.8439   -2.2748    0.0000 C   0  0  0  0  0  0  0  0  0  0  0  0
    0.5890   -1.4901    0.0000 N   0  0  0  0  0  0  0  0  0  0  0  0
    2.1538   -2.9422    0.0000 C   0  0  0  0  0  0  0  0  0  0  0  0
    2.9788   -2.9422    0.0000 C   0  0  0  0  0  0  0  0  0  0  0  0
    3.2338   -3.7268    0.0000 C   0  0  0  0  0  0  0  0  0  0  0  0
    2.5663   -4.2117    0.0000 N   0  0  0  0  0  0  0  0  0  0  0  0
    1.8989   -3.7268    0.0000 C   0  0  0  0  0  0  0  0  0  0  0  0
  1  2  1  0  0  0  0
  2  3  1  0  0  0  0
  3  4  2  0  0  0  0
  4  5  1  0  0  0  0
  5  6  2  0  0  0  0
  2  6  1  0  0  0  0
  4  7  1  0  0  0  0
  7  8  1  0  0  0  0
  8  9  1  0  0  0  0
  9 10  1  0  0  0  0
 10 11  1  0  0  0  0
  7 11  1  0  0  0  0
M  END
>  <Catalog ID>
Z940902736

>  <PlateID>
1198308-R-SPFL-02

>  <Well>
E07

>  <MW (desalted)>
151.209

>  <ClogP>
-0.181

>  <HBD>
1

>  <TPSA>
29.850

>  <RotBonds>
1

$$$$

            

 11 12  0  0  0  0            999 V2000
    0.7145    6.5292    0.0000 N   0  0  0  0  0  0  0  0  0  0  0  0
    0.7145    5.7042    0.0000 C   0  0  0  0  0  0  0  0  0  0  0  0
    1.4289    5.2917    0.0000 C   0  0  0  0  0  0  0  0  0  0  0  0
    1.4289    4.4667    0.0000 C   0  0  0  0  0  0  0  0  0  0  0  0
    0.7145    4.0542    0.0000 C   0  0  0  0  0  0  0  0  0  0  0  0
    0.0000    4.4667    0.0000 C   0  0  0  0  0  0  0  0  0  0  0  0
   -0.0000    5.2917    0.0000 N   0  0  0  0  0  0  0  0  0  0  0  0
    0.7145    3.2292    0.0000 C   0  0  0  0  0  0  0  0  0  0  0  0
    1.2978    2.6459    0.0000 C   0  0  0  0  0  0  0  0  0  0  0  0
    0.7145    2.0625    0.0000 C   0  0  0  0  0  0  0  0  0  0  0  0
    0.1311    2.6459    0.0000 C   0  0  0  0  0  0  0  0  0  0  0  0
  1  2  1  0  0  0  0
  2  3  2  0  0  0  0
  3  4  1  0  0  0  0
  4  5  2  0  0  0  0
  5  6  1  0  0  0  0
  6  7  2  0  0  0  0
  2  7  1  0  0  0  0
  5  8  1  0  0  0  0
  8  9  1  0  0  0  0
  9 10  1  0  0  0  0
 10 11  1  0  0  0  0
  8 11  1  0  0  0  0
M  END
>  <Catalog ID>
Z1255447265

>  <PlateID>
1198308-R-SPFL-02

>  <Well>
E08

>  <MW (desalted)>
148.205

>  <ClogP>
1.820

>  <HBD>
1

>  <TPSA>
38.910

>  <RotBonds>
1

$$$$

            

 13 14  0  0  0  0            999 V2000
    0.0768   -2.3215    0.0000 O   0  0  0  0  0  0  0  0  0  0  0  0
    0.8838   -2.1500    0.0000 C   0  0  0  0  0  0  0  0  0  0  0  0
    1.4358   -2.7631    0.0000 O   0  0  0  0  0  0  0  0  0  0  0  0
    1.1387   -1.3654    0.0000 C   0  0  0  0  0  0  0  0  0  0  0  0
    0.6538   -0.6979    0.0000 N   0  0  0  0  0  0  0  0  0  0  0  0
    1.1387   -0.0305    0.0000 O   0  0  0  0  0  0  0  0  0  0  0  0
    1.9233   -0.2854    0.0000 C   0  0  0  0  0  0  0  0  0  0  0  0
    2.6378    0.1271    0.0000 C   0  0  0  0  0  0  0  0  0  0  0  0
    3.3523   -0.2854    0.0000 C   0  0  0  0  0  0  0  0  0  0  0  0
    4.0668    0.1271    0.0000 F   0  0  0  0  0  0  0  0  0  0  0  0
    3.3523   -1.1104    0.0000 C   0  0  0  0  0  0  0  0  0  0  0  0
    2.6378   -1.5229    0.0000 C   0  0  0  0  0  0  0  0  0  0  0  0
    1.9233   -1.1104    0.0000 C   0  0  0  0  0  0  0  0  0  0  0  0
  1  2  1  0  0  0  0
  2  3  2  0  0  0  0
  2  4  1  0  0  0  0
  4  5  2  0  0  0  0
  5  6  1  0  0  0  0
  6  7  1  0  0  0  0
  7  8  2  0  0  0  0
  8  9  1  0  0  0  0
  9 10  1  0  0  0  0
  9 11  2  0  0  0  0
 11 12  1  0  0  0  0
 12 13  2  0  0  0  0
  4 13  1  0  0  0  0
  7 13  1  0  0  0  0
M  END
>  <Catalog ID>
Z2582143681

>  <PlateID>
1198308-R-SPFL-02

>  <Well>
E09

>  <MW (desalted)>
181.121

>  <ClogP>
1.889

>  <HBD>
1

>  <TPSA>
63.330

>  <RotBonds>
1

$$$$

            

 12 13  0  0  0  0            999 V2000
    2.5645    2.4750    0.0000 O   0  0  0  0  0  0  0  0  0  0  0  0
    3.2789    2.0625    0.0000 C   0  0  0  0  0  0  0  0  0  0  0  0
    3.9934    2.4750    0.0000 O   0  0  0  0  0  0  0  0  0  0  0  0
    3.2789    1.2375    0.0000 C   0  0  0  0  0  0  0  0  0  0  0  0
    3.9934    0.8250    0.0000 C   0  0  0  0  0  0  0  0  0  0  0  0
    3.9934    0.0000    0.0000 N   0  0  0  0  0  0  0  0  0  0  0  0
    3.2789   -0.4125    0.0000 C   0  0  0  0  0  0  0  0  0  0  0  0
    2.5645    0.0000    0.0000 C   0  0  0  0  0  0  0  0  0  0  0  0
    1.7798   -0.2549    0.0000 S   0  0  0  0  0  0  0  0  0  0  0  0
    1.2949    0.4125    0.0000 C   0  0  0  0  0  0  0  0  0  0  0  0
    1.7798    1.0799    0.0000 C   0  0  0  0  0  0  0  0  0  0  0  0
    2.5645    0.8250    0.0000 C   0  0  0  0  0  0  0  0  0  0  0  0
  1  2  1  0  0  0  0
  2  3  2  0  0  0  0
  2  4  1  0  0  0  0
  4  5  1  0  0  0  0
  5  6  2  0  0  0  0
  6  7  1  0  0  0  0
  7  8  2  0  0  0  0
  8  9  1  0  0  0  0
  9 10  1  0  0  0  0
 10 11  2  0  0  0  0
 11 12  1  0  0  0  0
  4 12  2  0  0  0  0
  8 12  1  0  0  0  0
M  END
>  <Catalog ID>
Z1862025642

>  <PlateID>
1198308-R-SPFL-02

>  <Well>
E10

>  <MW (desalted)>
179.196

>  <ClogP>
1.968

>  <HBD>
1

>  <TPSA>
50.190

>  <RotBonds>
1

$$$$

            

 11 11  0  0  0  0            999 V2000
    0.5678    1.9393    0.0000 C   0  0  0  0  0  0  0  0  0  0  0  0
    0.5678    1.1143    0.0000 N   0  0  0  0  0  0  0  0  0  0  0  0
    1.2352    0.6294    0.0000 C   0  0  0  0  0  0  0  0  0  0  0  0
    0.9803   -0.1553    0.0000 C   0  0  0  0  0  0  0  0  0  0  0  0
    1.4652   -0.8227    0.0000 C   0  0  0  0  0  0  0  0  0  0  0  0
    2.2857   -0.7365    0.0000 O   0  0  0  0  0  0  0  0  0  0  0  0
    0.1553   -0.1553    0.0000 C   0  0  0  0  0  0  0  0  0  0  0  0
   -0.0997    0.6294    0.0000 N   0  0  0  0  0  0  0  0  0  0  0  0
   -0.3297   -0.8227    0.0000 C   0  0  0  0  0  0  0  0  0  0  0  0
   -1.1501   -0.7365    0.0000 F   0  0  0  0  0  0  0  0  0  0  0  0
    0.0059   -1.5764    0.0000 F   0  0  0  0  0  0  0  0  0  0  0  0
  1  2  1  0  0  0  0
  2  3  1  0  0  0  0
  3  4  2  0  0  0  0
  4  5  1  0  0  0  0
  5  6  1  0  0  0  0
  4  7  1  0  0  0  0
  7  8  2  0  0  0  0
  2  8  1  0  0  0  0
  7  9  1  0  0  0  0
  9 10  1  0  0  0  0
  9 11  1  0  0  0  0
M  END
>  <Catalog ID>
Z2168542618

>  <PlateID>
1198308-R-SPFL-02

>  <Well>
E11

>  <MW (desalted)>
162.137

>  <ClogP>
-0.636

>  <HBD>
1

>  <TPSA>
38.050

>  <RotBonds>
2

$$$$

            

 10 10  0  0  0  0            999 V2000
    0.5678    1.9393    0.0000 N   0  0  0  0  0  0  0  0  0  0  0  0
    0.5678    1.1143    0.0000 C   0  0  0  0  0  0  0  0  0  0  0  0
    1.2352    0.6294    0.0000 N   0  0  0  0  0  0  0  0  0  0  0  0
    0.9803   -0.1553    0.0000 C   0  0  0  0  0  0  0  0  0  0  0  0
    0.1553   -0.1553    0.0000 C   0  0  0  0  0  0  0  0  0  0  0  0
   -0.0997    0.6294    0.0000 O   0  0  0  0  0  0  0  0  0  0  0  0
    1.4652   -0.8227    0.0000 C   0  0  0  0  0  0  0  0  0  0  0  0
    1.9501   -1.4901    0.0000 F   0  0  0  0  0  0  0  0  0  0  0  0
    0.7977   -1.3076    0.0000 F   0  0  0  0  0  0  0  0  0  0  0  0
    2.1326   -0.3378    0.0000 F   0  0  0  0  0  0  0  0  0  0  0  0
  1  2  1  0  0  0  0
  2  3  2  0  0  0  0
  3  4  1  0  0  0  0
  4  5  2  0  0  0  0
  5  6  1  0  0  0  0
  2  6  1  0  0  0  0
  4  7  1  0  0  0  0
  7  8  1  0  0  0  0
  7  9  1  0  0  0  0
  7 10  1  0  0  0  0
M  END
>  <Catalog ID>
Z939904642

>  <PlateID>
1198308-R-SPFL-02

>  <Well>
F02

>  <MW (desalted)>
152.075

>  <ClogP>
0.593

>  <HBD>
1

>  <TPSA>
52.050

>  <RotBonds>
1

$$$$

            

 13 12  0  0  0  0            999 V2000
    0.0000    0.0000    0.0000 Cl  0  0  0  0  0  0  0  0  0  0  0  0
    2.0036    0.0000    0.0000 Cl  0  0  0  0  0  0  0  0  0  0  0  0
    0.2566   -1.6500    0.0000 C   0  0  0  0  0  0  0  0  0  0  0  0
    0.3999   -2.4625    0.0000 C   0  0  0  0  0  0  0  0  0  0  0  0
    1.1751   -2.7446    0.0000 N   0  0  0  0  0  0  0  0  0  0  0  0
    1.3184   -3.5571    0.0000 C   0  0  0  0  0  0  0  0  0  0  0  0
    0.6864   -4.0874    0.0000 C   0  0  0  0  0  0  0  0  0  0  0  0
   -0.0889   -3.8052    0.0000 C   0  0  0  0  0  0  0  0  0  0  0  0
   -0.2321   -2.9928    0.0000 N   0  0  0  0  0  0  0  0  0  0  0  0
   -0.7208   -4.3355    0.0000 C   0  0  0  0  0  0  0  0  0  0  0  0
   -1.3528   -3.8052    0.0000 N   0  0  0  0  0  0  0  0  0  0  0  0
   -0.3083   -5.0500    0.0000 C   0  0  0  0  0  0  0  0  0  0  0  0
   -1.1333   -5.0500    0.0000 C   0  0  0  0  0  0  0  0  0  0  0  0
  3  4  1  0  0  0  0
  4  5  2  0  0  0  0
  5  6  1  0  0  0  0
  6  7  2  0  0  0  0
  7  8  1  0  0  0  0
  8  9  2  0  0  0  0
  4  9  1  0  0  0  0
  8 10  1  0  0  0  0
 10 11  1  0  0  0  0
 10 12  1  0  0  0  0
 12 13  1  0  0  0  0
 10 13  1  0  0  0  0
M  END
>  <Catalog ID>
Z2572789090

>  <PlateID>
1198308-R-SPFL-02

>  <Well>
F03

>  <MW (desalted)>
149.193

>  <ClogP>
-0.517

>  <HBD>
1

>  <TPSA>
51.800

>  <RotBonds>
1

$$$$

            

 15 17  0  0  0  0            999 V2000
   -0.1781   -3.1062    0.0000 C   0  0  0  0  0  0  0  0  0  0  0  0
    0.0768   -2.3215    0.0000 C   0  0  0  0  0  0  0  0  0  0  0  0
    0.8838   -2.1500    0.0000 C   0  0  0  0  0  0  0  0  0  0  0  0
    1.4358   -2.7631    0.0000 C   0  0  0  0  0  0  0  0  0  0  0  0
    1.1809   -3.5477    0.0000 C   0  0  0  0  0  0  0  0  0  0  0  0
    0.3739   -3.7192    0.0000 N   0  0  0  0  0  0  0  0  0  0  0  0
    1.1387   -1.3654    0.0000 C   0  0  0  0  0  0  0  0  0  0  0  0
    0.6538   -0.6979    0.0000 N   0  0  0  0  0  0  0  0  0  0  0  0
    1.1387   -0.0305    0.0000 N   0  0  0  0  0  0  0  0  0  0  0  0
    1.9233   -0.2854    0.0000 C   0  0  0  0  0  0  0  0  0  0  0  0
    2.6378    0.1271    0.0000 C   0  0  0  0  0  0  0  0  0  0  0  0
    3.3523   -0.2854    0.0000 C   0  0  0  0  0  0  0  0  0  0  0  0
    3.3523   -1.1104    0.0000 C   0  0  0  0  0  0  0  0  0  0  0  0
    2.6378   -1.5229    0.0000 C   0  0  0  0  0  0  0  0  0  0  0  0
    1.9233   -1.1104    0.0000 N   0  0  0  0  0  0  0  0  0  0  0  0
  1  2  1  0  0  0  0
  2  3  1  0  0  0  0
  3  4  1  0  0  0  0
  4  5  1  0  0  0  0
  5  6  1  0  0  0  0
  1  6  1  0  0  0  0
  3  7  1  0  0  0  0
  7  8  2  0  0  0  0
  8  9  1  0  0  0  0
  9 10  2  0  0  0  0
 10 11  1  0  0  0  0
 11 12  2  0  0  0  0
 12 13  1  0  0  0  0
 13 14  2  0  0  0  0
 14 15  1  0  0  0  0
  7 15  1  0  0  0  0
 10 15  1  0  0  0  0
M  END
>  <Catalog ID>
Z335451498

>  <PlateID>
1198308-R-SPFL-02

>  <Well>
F04

>  <MW (desalted)>
202.256

>  <ClogP>
0.281

>  <HBD>
1

>  <TPSA>
42.220

>  <RotBonds>
1

$$$$

            

 14 15  0  0  0  0            999 V2000
    0.7145   -3.7125    0.0000 O   0  0  0  0  0  0  0  0  0  0  0  0
    0.7145   -2.8875    0.0000 C   0  0  0  0  0  0  0  0  0  0  0  0
    0.0000   -2.4750    0.0000 O   0  0  0  0  0  0  0  0  0  0  0  0
    1.4289   -2.4750    0.0000 C   0  0  0  0  0  0  0  0  0  0  0  0
    1.4289   -1.6500    0.0000 C   0  0  0  0  0  0  0  0  0  0  0  0
    0.7145   -1.2375    0.0000 C   0  0  0  0  0  0  0  0  0  0  0  0
    0.7145   -0.4125    0.0000 C   0  0  0  0  0  0  0  0  0  0  0  0
    1.4289    0.0000    0.0000 O   0  0  0  0  0  0  0  0  0  0  0  0
    2.1434   -0.4125    0.0000 C   0  0  0  0  0  0  0  0  0  0  0  0
    2.8579    0.0000    0.0000 C   0  0  0  0  0  0  0  0  0  0  0  0
    3.5724   -0.4125    0.0000 C   0  0  0  0  0  0  0  0  0  0  0  0
    3.5724   -1.2375    0.0000 C   0  0  0  0  0  0  0  0  0  0  0  0
    2.8579   -1.6500    0.0000 C   0  0  0  0  0  0  0  0  0  0  0  0
    2.1434   -1.2375    0.0000 C   0  0  0  0  0  0  0  0  0  0  0  0
  1  2  1  0  0  0  0
  2  3  2  0  0  0  0
  2  4  1  0  0  0  0
  4  5  1  0  0  0  0
  5  6  1  0  0  0  0
  6  7  1  0  0  0  0
  7  8  1  0  0  0  0
  8  9  1  0  0  0  0
  9 10  2  0  0  0  0
 10 11  1  0  0  0  0
 11 12  2  0  0  0  0
 12 13  1  0  0  0  0
 13 14  2  0  0  0  0
  5 14  1  0  0  0  0
  9 14  1  0  0  0  0
M  END
>  <Catalog ID>
Z352783086

>  <PlateID>
1198308-R-SPFL-02

>  <Well>
F05

>  <MW (desalted)>
192.211

>  <ClogP>
1.857

>  <HBD>
1

>  <TPSA>
46.530

>  <RotBonds>
2

$$$$

            

 10 11  0  0  0  0            999 V2000
   -2.4747    6.0636    0.0000 N   0  0  0  0  0  0  0  0  0  0  0  0
   -2.1391    5.3099    0.0000 C   0  0  0  0  0  0  0  0  0  0  0  0
   -1.3321    5.1384    0.0000 N   0  0  0  0  0  0  0  0  0  0  0  0
   -1.2459    4.3179    0.0000 C   0  0  0  0  0  0  0  0  0  0  0  0
   -0.5314    3.9054    0.0000 C   0  0  0  0  0  0  0  0  0  0  0  0
   -0.5314    3.0804    0.0000 C   0  0  0  0  0  0  0  0  0  0  0  0
   -0.1189    2.3660    0.0000 C   0  0  0  0  0  0  0  0  0  0  0  0
   -0.9439    2.3660    0.0000 C   0  0  0  0  0  0  0  0  0  0  0  0
   -1.9996    3.9824    0.0000 N   0  0  0  0  0  0  0  0  0  0  0  0
   -2.5516    4.5955    0.0000 S   0  0  0  0  0  0  0  0  0  0  0  0
  1  2  1  0  0  0  0
  2  3  2  0  0  0  0
  3  4  1  0  0  0  0
  4  5  1  0  0  0  0
  5  6  1  0  0  0  0
  6  7  1  0  0  0  0
  7  8  1  0  0  0  0
  6  8  1  0  0  0  0
  4  9  2  0  0  0  0
  9 10  1  0  0  0  0
  2 10  1  0  0  0  0
M  END
>  <Catalog ID>
Z1407084923

>  <PlateID>
1198308-R-SPFL-02

>  <Well>
F06

>  <MW (desalted)>
155.221

>  <ClogP>
1.033

>  <HBD>
1

>  <TPSA>
51.800

>  <RotBonds>
2

$$$$

            

 14 15  0  0  0  0            999 V2000
    0.6078    1.1759    0.0000 C   0  0  0  0  0  0  0  0  0  0  0  0
    1.3222    0.7634    0.0000 C   0  0  0  0  0  0  0  0  0  0  0  0
    1.3222   -0.0616    0.0000 N   0  0  0  0  0  0  0  0  0  0  0  0
    2.0367    1.1759    0.0000 C   0  0  0  0  0  0  0  0  0  0  0  0
    2.0367    2.0009    0.0000 C   0  0  0  0  0  0  0  0  0  0  0  0
    2.7512    2.4134    0.0000 C   0  0  0  0  0  0  0  0  0  0  0  0
    3.4656    2.0009    0.0000 C   0  0  0  0  0  0  0  0  0  0  0  0
    3.4656    1.1759    0.0000 C   0  0  0  0  0  0  0  0  0  0  0  0
    2.7512    0.7634    0.0000 C   0  0  0  0  0  0  0  0  0  0  0  0
    2.7512   -0.0616    0.0000 N   0  0  0  0  0  0  0  0  0  0  0  0
    3.4186   -0.5465    0.0000 C   0  0  0  0  0  0  0  0  0  0  0  0
    3.1637   -1.3312    0.0000 C   0  0  0  0  0  0  0  0  0  0  0  0
    2.3387   -1.3312    0.0000 C   0  0  0  0  0  0  0  0  0  0  0  0
    2.0837   -0.5465    0.0000 N   0  0  0  0  0  0  0  0  0  0  0  0
  1  2  1  0  0  0  0
  2  3  1  0  0  0  0
  2  4  1  0  0  0  0
  4  5  2  0  0  0  0
  5  6  1  0  0  0  0
  6  7  2  0  0  0  0
  7  8  1  0  0  0  0
  8  9  2  0  0  0  0
  4  9  1  0  0  0  0
  9 10  1  0  0  0  0
 10 11  1  0  0  0  0
 11 12  2  0  0  0  0
 12 13  1  0  0  0  0
 13 14  2  0  0  0  0
 10 14  1  0  0  0  0
M  END
>  <Catalog ID>
Z332383418

>  <PlateID>
1198308-R-SPFL-02

>  <Well>
F07

>  <MW (desalted)>
187.241

>  <ClogP>
1.457

>  <HBD>
1

>  <TPSA>
43.840

>  <RotBonds>
2

$$$$

            

 13 14  0  0  0  0            999 V2000
    2.0367   -0.4741    0.0000 C   0  0  0  0  0  0  0  0  0  0  0  0
    2.0367   -1.2991    0.0000 N   0  0  0  0  0  0  0  0  0  0  0  0
    2.7041   -1.7840    0.0000 N   0  0  0  0  0  0  0  0  0  0  0  0
    2.4492   -2.5687    0.0000 C   0  0  0  0  0  0  0  0  0  0  0  0
    1.6242   -2.5687    0.0000 C   0  0  0  0  0  0  0  0  0  0  0  0
    1.3693   -1.7840    0.0000 C   0  0  0  0  0  0  0  0  0  0  0  0
    0.5846   -1.5291    0.0000 C   0  0  0  0  0  0  0  0  0  0  0  0
    0.4131   -0.7221    0.0000 C   0  0  0  0  0  0  0  0  0  0  0  0
   -0.3715   -0.4672    0.0000 C   0  0  0  0  0  0  0  0  0  0  0  0
   -0.5430    0.3398    0.0000 C   0  0  0  0  0  0  0  0  0  0  0  0
    0.0701    0.8918    0.0000 N   0  0  0  0  0  0  0  0  0  0  0  0
    0.8547    0.6369    0.0000 C   0  0  0  0  0  0  0  0  0  0  0  0
    1.0262   -0.1701    0.0000 C   0  0  0  0  0  0  0  0  0  0  0  0
  1  2  1  0  0  0  0
  2  3  1  0  0  0  0
  3  4  2  0  0  0  0
  4  5  1  0  0  0  0
  5  6  2  0  0  0  0
  2  6  1  0  0  0  0
  6  7  1  0  0  0  0
  7  8  1  0  0  0  0
  8  9  1  0  0  0  0
  9 10  1  0  0  0  0
 10 11  1  0  0  0  0
 11 12  1  0  0  0  0
 12 13  1  0  0  0  0
  8 13  1  0  0  0  0
M  END
>  <Catalog ID>
Z1183446148

>  <PlateID>
1198308-R-SPFL-02

>  <Well>
F08

>  <MW (desalted)>
179.262

>  <ClogP>
0.757

>  <HBD>
1

>  <TPSA>
29.850

>  <RotBonds>
2

$$$$

            

 14 16  0  0  0  0            999 V2000
    3.3336    3.0672    0.0000 C   0  0  0  0  0  0  0  0  0  0  0  0
    4.0977    2.7562    0.0000 C   0  0  0  0  0  0  0  0  0  0  0  0
    4.2104    1.9389    0.0000 N   0  0  0  0  0  0  0  0  0  0  0  0
    4.8931    1.4758    0.0000 C   0  0  0  0  0  0  0  0  0  0  0  0
    4.6637    0.6834    0.0000 C   0  0  0  0  0  0  0  0  0  0  0  0
    3.8391    0.6567    0.0000 C   0  0  0  0  0  0  0  0  0  0  0  0
    3.5590    1.4327    0.0000 C   0  0  0  0  0  0  0  0  0  0  0  0
    2.7948    1.7437    0.0000 C   0  0  0  0  0  0  0  0  0  0  0  0
    2.9075    0.9265    0.0000 C   0  0  0  0  0  0  0  0  0  0  0  0
    2.2561    0.4202    0.0000 C   0  0  0  0  0  0  0  0  0  0  0  0
    1.4920    0.7313    0.0000 O   0  0  0  0  0  0  0  0  0  0  0  0
    1.3793    1.5485    0.0000 C   0  0  0  0  0  0  0  0  0  0  0  0
    2.0307    2.0548    0.0000 C   0  0  0  0  0  0  0  0  0  0  0  0
    2.6821    2.5610    0.0000 N   0  0  0  0  0  0  0  0  0  0  0  0
  1  2  1  0  0  0  0
  2  3  1  0  0  0  0
  3  4  1  0  0  0  0
  4  5  2  0  0  0  0
  5  6  1  0  0  0  0
  6  7  2  0  0  0  0
  3  7  1  0  0  0  0
  7  8  1  0  0  0  0
  8  9  1  0  0  0  0
  9 10  1  0  0  0  0
 10 11  1  0  0  0  0
 11 12  1  0  0  0  0
 12 13  1  0  0  0  0
  8 13  1  0  0  0  0
  8 14  1  0  0  0  0
  1 14  1  0  0  0  0
M  END
>  <Catalog ID>
Z1824427416

>  <PlateID>
1198308-R-SPFL-02

>  <Well>
F09

>  <MW (desalted)>
192.258

>  <ClogP>
0.039

>  <HBD>
1

>  <TPSA>
26.190

>  <RotBonds>
0

$$$$

            

 12 13  0  0  0  0            999 V2000
   -0.5837   -1.4124    0.0000 C   0  0  0  0  0  0  0  0  0  0  0  0
   -0.1712   -0.6979    0.0000 C   0  0  0  0  0  0  0  0  0  0  0  0
    0.6538   -0.6979    0.0000 C   0  0  0  0  0  0  0  0  0  0  0  0
    1.1387   -0.0305    0.0000 C   0  0  0  0  0  0  0  0  0  0  0  0
    1.9233   -0.2854    0.0000 C   0  0  0  0  0  0  0  0  0  0  0  0
    2.6378    0.1271    0.0000 C   0  0  0  0  0  0  0  0  0  0  0  0
    2.6378    0.9521    0.0000 O   0  0  0  0  0  0  0  0  0  0  0  0
    3.3523   -0.2854    0.0000 N   0  0  0  0  0  0  0  0  0  0  0  0
    3.3523   -1.1104    0.0000 C   0  0  0  0  0  0  0  0  0  0  0  0
    2.6378   -1.5229    0.0000 C   0  0  0  0  0  0  0  0  0  0  0  0
    1.9233   -1.1104    0.0000 C   0  0  0  0  0  0  0  0  0  0  0  0
    1.1387   -1.3654    0.0000 O   0  0  0  0  0  0  0  0  0  0  0  0
  1  2  1  0  0  0  0
  2  3  1  0  0  0  0
  3  4  2  0  0  0  0
  4  5  1  0  0  0  0
  5  6  1  0  0  0  0
  6  7  2  0  0  0  0
  6  8  1  0  0  0  0
  8  9  1  0  0  0  0
  9 10  2  0  0  0  0
 10 11  1  0  0  0  0
  5 11  2  0  0  0  0
 11 12  1  0  0  0  0
  3 12  1  0  0  0  0
M  END
>  <Catalog ID>
Z2242875203

>  <PlateID>
1198308-R-SPFL-02

>  <Well>
F10

>  <MW (desalted)>
163.173

>  <ClogP>
1.226

>  <HBD>
1

>  <TPSA>
42.240

>  <RotBonds>
1

$$$$

            

 14 15  0  0  0  0            999 V2000
    0.0000    0.0000    0.0000 O   0  0  0  0  0  0  0  0  0  0  0  0
    0.7145   -0.4125    0.0000 C   0  0  0  0  0  0  0  0  0  0  0  0
    0.7145   -1.2375    0.0000 C   0  0  0  0  0  0  0  0  0  0  0  0
    1.4289   -1.6500    0.0000 C   0  0  0  0  0  0  0  0  0  0  0  0
    1.4289   -2.4750    0.0000 N   0  0  0  0  0  0  0  0  0  0  0  0
    0.7145   -2.8875    0.0000 C   0  0  0  0  0  0  0  0  0  0  0  0
    0.0000   -2.4750    0.0000 N   0  0  0  0  0  0  0  0  0  0  0  0
    0.0000   -1.6500    0.0000 C   0  0  0  0  0  0  0  0  0  0  0  0
    0.7145   -3.7125    0.0000 C   0  0  0  0  0  0  0  0  0  0  0  0
    1.4289   -4.1250    0.0000 C   0  0  0  0  0  0  0  0  0  0  0  0
    1.4289   -4.9500    0.0000 C   0  0  0  0  0  0  0  0  0  0  0  0
    0.7145   -5.3625    0.0000 C   0  0  0  0  0  0  0  0  0  0  0  0
    0.0000   -4.9500    0.0000 C   0  0  0  0  0  0  0  0  0  0  0  0
    0.0000   -4.1250    0.0000 C   0  0  0  0  0  0  0  0  0  0  0  0
  1  2  1  0  0  0  0
  2  3  1  0  0  0  0
  3  4  2  0  0  0  0
  4  5  1  0  0  0  0
  5  6  2  0  0  0  0
  6  7  1  0  0  0  0
  7  8  2  0  0  0  0
  3  8  1  0  0  0  0
  6  9  1  0  0  0  0
  9 10  2  0  0  0  0
 10 11  1  0  0  0  0
 11 12  2  0  0  0  0
 12 13  1  0  0  0  0
 13 14  2  0  0  0  0
  9 14  1  0  0  0  0
M  END
>  <Catalog ID>
Z1013716422

>  <PlateID>
1198308-R-SPFL-02

>  <Well>
F11

>  <MW (desalted)>
186.210

>  <ClogP>
0.748

>  <HBD>
1

>  <TPSA>
46.010

>  <RotBonds>
2

$$$$

            

 11 12  0  0  0  0            999 V2000
    1.4289   -2.4750    0.0000 O   0  0  0  0  0  0  0  0  0  0  0  0
    1.4289   -1.6500    0.0000 C   0  0  0  0  0  0  0  0  0  0  0  0
    0.7145   -1.2375    0.0000 N   0  0  0  0  0  0  0  0  0  0  0  0
    0.7145   -0.4125    0.0000 C   0  0  0  0  0  0  0  0  0  0  0  0
    1.4289    0.0000    0.0000 C   0  0  0  0  0  0  0  0  0  0  0  0
    2.1434   -0.4125    0.0000 C   0  0  0  0  0  0  0  0  0  0  0  0
    2.8579    0.0000    0.0000 C   0  0  0  0  0  0  0  0  0  0  0  0
    3.5724   -0.4125    0.0000 C   0  0  0  0  0  0  0  0  0  0  0  0
    3.5724   -1.2375    0.0000 C   0  0  0  0  0  0  0  0  0  0  0  0
    2.8579   -1.6500    0.0000 N   0  0  0  0  0  0  0  0  0  0  0  0
    2.1434   -1.2375    0.0000 C   0  0  0  0  0  0  0  0  0  0  0  0
  1  2  1  0  0  0  0
  2  3  2  0  0  0  0
  3  4  1  0  0  0  0
  4  5  2  0  0  0  0
  5  6  1  0  0  0  0
  6  7  2  0  0  0  0
  7  8  1  0  0  0  0
  8  9  2  0  0  0  0
  9 10  1  0  0  0  0
 10 11  2  0  0  0  0
  2 11  1  0  0  0  0
  6 11  1  0  0  0  0
M  END
>  <Catalog ID>
Z1201626988

>  <PlateID>
1198308-R-SPFL-02

>  <Well>
G02

>  <MW (desalted)>
146.146

>  <ClogP>
1.474

>  <HBD>
1

>  <TPSA>
46.010

>  <RotBonds>
0

$$$$

            

 14 14  0  0  0  0            999 V2000
    0.0000    3.3000    0.0000 N   0  0  0  0  0  0  0  0  0  0  0  0
    0.0000    2.4750    0.0000 C   0  0  0  0  0  0  0  0  0  0  0  0
   -0.7145    2.0625    0.0000 O   0  0  0  0  0  0  0  0  0  0  0  0
    0.7145    2.0625    0.0000 C   0  0  0  0  0  0  0  0  0  0  0  0
    0.7145    1.2375    0.0000 C   0  0  0  0  0  0  0  0  0  0  0  0
    1.4289    0.8250    0.0000 C   0  0  0  0  0  0  0  0  0  0  0  0
    1.4289   -0.0000    0.0000 C   0  0  0  0  0  0  0  0  0  0  0  0
    0.7145   -0.4125    0.0000 C   0  0  0  0  0  0  0  0  0  0  0  0
    0.0000    0.0000    0.0000 C   0  0  0  0  0  0  0  0  0  0  0  0
    0.0000    0.8250    0.0000 C   0  0  0  0  0  0  0  0  0  0  0  0
    0.7145   -1.2375    0.0000 C   0  0  0  0  0  0  0  0  0  0  0  0
    0.7145   -2.0625    0.0000 F   0  0  0  0  0  0  0  0  0  0  0  0
   -0.1105   -1.2375    0.0000 F   0  0  0  0  0  0  0  0  0  0  0  0
    1.5395   -1.2375    0.0000 F   0  0  0  0  0  0  0  0  0  0  0  0
  1  2  1  0  0  0  0
  2  3  2  0  0  0  0
  2  4  1  0  0  0  0
  4  5  1  0  0  0  0
  5  6  2  0  0  0  0
  6  7  1  0  0  0  0
  7  8  2  0  0  0  0
  8  9  1  0  0  0  0
  9 10  2  0  0  0  0
  5 10  1  0  0  0  0
  8 11  1  0  0  0  0
 11 12  1  0  0  0  0
 11 13  1  0  0  0  0
 11 14  1  0  0  0  0
M  END
>  <Catalog ID>
Z194976340

>  <PlateID>
1198308-R-SPFL-02

>  <Well>
G03

>  <MW (desalted)>
203.161

>  <ClogP>
1.337

>  <HBD>
1

>  <TPSA>
43.090

>  <RotBonds>
3

$$$$

            

 12 13  0  0  0  0            999 V2000
    0.0768   -2.3215    0.0000 O   0  0  0  0  0  0  0  0  0  0  0  0
    0.8838   -2.1500    0.0000 C   0  0  0  0  0  0  0  0  0  0  0  0
    1.4358   -2.7631    0.0000 O   0  0  0  0  0  0  0  0  0  0  0  0
    1.1387   -1.3654    0.0000 C   0  0  0  0  0  0  0  0  0  0  0  0
    0.6538   -0.6979    0.0000 O   0  0  0  0  0  0  0  0  0  0  0  0
    1.1387   -0.0305    0.0000 C   0  0  0  0  0  0  0  0  0  0  0  0
    1.9233   -0.2854    0.0000 C   0  0  0  0  0  0  0  0  0  0  0  0
    2.6378    0.1271    0.0000 C   0  0  0  0  0  0  0  0  0  0  0  0
    3.3523   -0.2854    0.0000 O   0  0  0  0  0  0  0  0  0  0  0  0
    3.3523   -1.1104    0.0000 C   0  0  0  0  0  0  0  0  0  0  0  0
    2.6378   -1.5229    0.0000 C   0  0  0  0  0  0  0  0  0  0  0  0
    1.9233   -1.1104    0.0000 C   0  0  0  0  0  0  0  0  0  0  0  0
  1  2  1  0  0  0  0
  2  3  2  0  0  0  0
  2  4  1  0  0  0  0
  4  5  1  0  0  0  0
  5  6  1  0  0  0  0
  6  7  2  0  0  0  0
  7  8  1  0  0  0  0
  8  9  1  0  0  0  0
  9 10  1  0  0  0  0
 10 11  1  0  0  0  0
 11 12  1  0  0  0  0
  4 12  2  0  0  0  0
  7 12  1  0  0  0  0
M  END
>  <Catalog ID>
Z1723882172

>  <PlateID>
1198308-R-SPFL-02

>  <Well>
G04

>  <MW (desalted)>
168.147

>  <ClogP>
0.534

>  <HBD>
1

>  <TPSA>
59.670

>  <RotBonds>
1

$$$$

            

 11 11  0  0  0  0            999 V2000
    0.0000    3.3000    0.0000 C   0  0  0  0  0  0  0  0  0  0  0  0
    0.0000    2.4750    0.0000 N   0  0  0  0  0  0  0  0  0  0  0  0
    0.7145    2.0625    0.0000 C   0  0  0  0  0  0  0  0  0  0  0  0
    0.7145    1.2375    0.0000 C   0  0  0  0  0  0  0  0  0  0  0  0
    1.4289    0.8250    0.0000 C   0  0  0  0  0  0  0  0  0  0  0  0
    1.4289   -0.0000    0.0000 C   0  0  0  0  0  0  0  0  0  0  0  0
    0.7145   -0.4125    0.0000 C   0  0  0  0  0  0  0  0  0  0  0  0
    0.7145   -1.2375    0.0000 F   0  0  0  0  0  0  0  0  0  0  0  0
    0.0000    0.0000    0.0000 C   0  0  0  0  0  0  0  0  0  0  0  0
   -0.7145   -0.4125    0.0000 F   0  0  0  0  0  0  0  0  0  0  0  0
    0.0000    0.8250    0.0000 C   0  0  0  0  0  0  0  0  0  0  0  0
  1  2  1  0  0  0  0
  2  3  1  0  0  0  0
  3  4  1  0  0  0  0
  4  5  2  0  0  0  0
  5  6  1  0  0  0  0
  6  7  2  0  0  0  0
  7  8  1  0  0  0  0
  7  9  1  0  0  0  0
  9 10  1  0  0  0  0
  9 11  2  0  0  0  0
  4 11  1  0  0  0  0
M  END
>  <Catalog ID>
Z102767736

>  <PlateID>
1198308-R-SPFL-02

>  <Well>
G05

>  <MW (desalted)>
157.161

>  <ClogP>
1.726

>  <HBD>
1

>  <TPSA>
12.030

>  <RotBonds>
2

$$$$

            

 11 11  0  0  0  0            999 V2000
    0.7145    2.0625    0.0000 O   0  0  0  0  0  0  0  0  0  0  0  0
    0.7145    1.2375    0.0000 C   0  0  0  0  0  0  0  0  0  0  0  0
    1.4289    0.8250    0.0000 C   0  0  0  0  0  0  0  0  0  0  0  0
    1.4289   -0.0000    0.0000 C   0  0  0  0  0  0  0  0  0  0  0  0
    0.7145   -0.4125    0.0000 N   0  0  0  0  0  0  0  0  0  0  0  0
    0.0000    0.0000    0.0000 C   0  0  0  0  0  0  0  0  0  0  0  0
    0.0000    0.8250    0.0000 C   0  0  0  0  0  0  0  0  0  0  0  0
   -0.7145   -0.4125    0.0000 C   0  0  0  0  0  0  0  0  0  0  0  0
   -1.4289   -0.8250    0.0000 F   0  0  0  0  0  0  0  0  0  0  0  0
   -1.1270    0.3020    0.0000 F   0  0  0  0  0  0  0  0  0  0  0  0
   -0.3020   -1.1270    0.0000 F   0  0  0  0  0  0  0  0  0  0  0  0
  1  2  1  0  0  0  0
  2  3  2  0  0  0  0
  3  4  1  0  0  0  0
  4  5  2  0  0  0  0
  5  6  1  0  0  0  0
  6  7  2  0  0  0  0
  2  7  1  0  0  0  0
  6  8  1  0  0  0  0
  8  9  1  0  0  0  0
  8 10  1  0  0  0  0
  8 11  1  0  0  0  0
M  END
>  <Catalog ID>
Z1198157115

>  <PlateID>
1198308-R-SPFL-02

>  <Well>
G06

>  <MW (desalted)>
163.097

>  <ClogP>
2.041

>  <HBD>
1

>  <TPSA>
33.120

>  <RotBonds>
1

$$$$

            

 10 10  0  0  0  0            999 V2000
    0.5678    1.9393    0.0000 N   0  0  0  0  0  0  0  0  0  0  0  0
    0.5678    1.1143    0.0000 C   0  0  0  0  0  0  0  0  0  0  0  0
    1.2352    0.6294    0.0000 N   0  0  0  0  0  0  0  0  0  0  0  0
    0.9803   -0.1553    0.0000 N   0  0  0  0  0  0  0  0  0  0  0  0
    0.1553   -0.1553    0.0000 C   0  0  0  0  0  0  0  0  0  0  0  0
   -0.0997    0.6294    0.0000 O   0  0  0  0  0  0  0  0  0  0  0  0
   -0.3297   -0.8227    0.0000 C   0  0  0  0  0  0  0  0  0  0  0  0
   -0.8146   -1.4901    0.0000 F   0  0  0  0  0  0  0  0  0  0  0  0
   -0.9971   -0.3378    0.0000 F   0  0  0  0  0  0  0  0  0  0  0  0
    0.3378   -1.3076    0.0000 F   0  0  0  0  0  0  0  0  0  0  0  0
  1  2  1  0  0  0  0
  2  3  2  0  0  0  0
  3  4  1  0  0  0  0
  4  5  2  0  0  0  0
  5  6  1  0  0  0  0
  2  6  1  0  0  0  0
  5  7  1  0  0  0  0
  7  8  1  0  0  0  0
  7  9  1  0  0  0  0
  7 10  1  0  0  0  0
M  END
>  <Catalog ID>
Z1198175926

>  <PlateID>
1198308-R-SPFL-02

>  <Well>
G07

>  <MW (desalted)>
153.063

>  <ClogP>
-0.262

>  <HBD>
1

>  <TPSA>
64.940

>  <RotBonds>
1

$$$$

            

 10 11  0  0  0  0            999 V2000
    0.5551   -1.3349    0.0000 O   0  0  0  0  0  0  0  0  0  0  0  0
    1.2695   -0.9224    0.0000 S   0  0  0  0  0  0  0  0  0  0  0  0
    1.6051   -1.6761    0.0000 O   0  0  0  0  0  0  0  0  0  0  0  0
    0.7846   -0.2549    0.0000 C   0  0  0  0  0  0  0  0  0  0  0  0
    1.2695    0.4125    0.0000 C   0  0  0  0  0  0  0  0  0  0  0  0
    2.0542    0.1576    0.0000 C   0  0  0  0  0  0  0  0  0  0  0  0
    2.8388    0.4125    0.0000 C   0  0  0  0  0  0  0  0  0  0  0  0
    3.3237   -0.2549    0.0000 N   0  0  0  0  0  0  0  0  0  0  0  0
    2.8388   -0.9224    0.0000 C   0  0  0  0  0  0  0  0  0  0  0  0
    2.0542   -0.6674    0.0000 C   0  0  0  0  0  0  0  0  0  0  0  0
  1  2  2  0  0  0  0
  2  3  2  0  0  0  0
  2  4  1  0  0  0  0
  4  5  1  0  0  0  0
  5  6  1  0  0  0  0
  6  7  2  0  0  0  0
  7  8  1  0  0  0  0
  8  9  1  0  0  0  0
  9 10  2  0  0  0  0
  6 10  1  0  0  0  0
  2 10  1  0  0  0  0
M  END
>  <Catalog ID>
Z1262614423

>  <PlateID>
1198308-R-SPFL-02

>  <Well>
G08

>  <MW (desalted)>
157.190

>  <ClogP>
-0.198

>  <HBD>
1

>  <TPSA>
49.930

>  <RotBonds>
0

$$$$

            

 10 10  0  0  0  0            999 V2000
    0.5678    1.9393    0.0000 C   0  0  0  0  0  0  0  0  0  0  0  0
    0.5678    1.1143    0.0000 C   0  0  0  0  0  0  0  0  0  0  0  0
    1.2352    0.6294    0.0000 N   0  0  0  0  0  0  0  0  0  0  0  0
    0.9803   -0.1553    0.0000 N   0  0  0  0  0  0  0  0  0  0  0  0
    0.1553   -0.1553    0.0000 C   0  0  0  0  0  0  0  0  0  0  0  0
   -0.0997    0.6294    0.0000 C   0  0  0  0  0  0  0  0  0  0  0  0
   -0.8843    0.8843    0.0000 C   0  0  0  0  0  0  0  0  0  0  0  0
   -1.6689    1.1392    0.0000 F   0  0  0  0  0  0  0  0  0  0  0  0
   -0.6294    1.6689    0.0000 F   0  0  0  0  0  0  0  0  0  0  0  0
   -1.1392    0.0997    0.0000 F   0  0  0  0  0  0  0  0  0  0  0  0
  1  2  1  0  0  0  0
  2  3  2  0  0  0  0
  3  4  1  0  0  0  0
  4  5  1  0  0  0  0
  5  6  2  0  0  0  0
  2  6  1  0  0  0  0
  6  7  1  0  0  0  0
  7  8  1  0  0  0  0
  7  9  1  0  0  0  0
  7 10  1  0  0  0  0
M  END
>  <Catalog ID>
Z1255459992

>  <PlateID>
1198308-R-SPFL-02

>  <Well>
G09

>  <MW (desalted)>
150.102

>  <ClogP>
1.785

>  <HBD>
1

>  <TPSA>
28.680

>  <RotBonds>
1

$$$$

            

 12 13  0  0  0  0            999 V2000
    1.4289   -2.4750    0.0000 F   0  0  0  0  0  0  0  0  0  0  0  0
    1.4289   -1.6500    0.0000 C   0  0  0  0  0  0  0  0  0  0  0  0
    0.7145   -1.2375    0.0000 C   0  0  0  0  0  0  0  0  0  0  0  0
    0.7145   -0.4125    0.0000 C   0  0  0  0  0  0  0  0  0  0  0  0
    1.4289    0.0000    0.0000 C   0  0  0  0  0  0  0  0  0  0  0  0
    2.1434   -0.4125    0.0000 C   0  0  0  0  0  0  0  0  0  0  0  0
    2.8579    0.0000    0.0000 N   0  0  0  0  0  0  0  0  0  0  0  0
    3.5724   -0.4125    0.0000 C   0  0  0  0  0  0  0  0  0  0  0  0
    3.5724   -1.2375    0.0000 C   0  0  0  0  0  0  0  0  0  0  0  0
    4.2868   -1.6500    0.0000 O   0  0  0  0  0  0  0  0  0  0  0  0
    2.8579   -1.6500    0.0000 N   0  0  0  0  0  0  0  0  0  0  0  0
    2.1434   -1.2375    0.0000 C   0  0  0  0  0  0  0  0  0  0  0  0
  1  2  1  0  0  0  0
  2  3  2  0  0  0  0
  3  4  1  0  0  0  0
  4  5  2  0  0  0  0
  5  6  1  0  0  0  0
  6  7  1  0  0  0  0
  7  8  1  0  0  0  0
  8  9  1  0  0  0  0
  9 10  2  0  0  0  0
  9 11  1  0  0  0  0
 11 12  1  0  0  0  0
  2 12  1  0  0  0  0
  6 12  2  0  0  0  0
M  END
>  <Catalog ID>
Z558640102

>  <PlateID>
1198308-R-SPFL-02

>  <Well>
G10

>  <MW (desalted)>
166.152

>  <ClogP>
0.952

>  <HBD>
2

>  <TPSA>
41.130

>  <RotBonds>
0

$$$$

            

 11 12  0  0  0  0            999 V2000
    4.0668    3.1729    0.0000 C   0  0  0  0  0  0  0  0  0  0  0  0
    4.0668    2.3479    0.0000 O   0  0  0  0  0  0  0  0  0  0  0  0
    3.3523    1.9354    0.0000 C   0  0  0  0  0  0  0  0  0  0  0  0
    3.3523    1.1104    0.0000 C   0  0  0  0  0  0  0  0  0  0  0  0
    2.6378    0.6979    0.0000 C   0  0  0  0  0  0  0  0  0  0  0  0
    1.9233    1.1104    0.0000 C   0  0  0  0  0  0  0  0  0  0  0  0
    1.1387    0.8555    0.0000 O   0  0  0  0  0  0  0  0  0  0  0  0
    0.6538    1.5229    0.0000 C   0  0  0  0  0  0  0  0  0  0  0  0
    1.1387    2.1904    0.0000 N   0  0  0  0  0  0  0  0  0  0  0  0
    1.9233    1.9354    0.0000 C   0  0  0  0  0  0  0  0  0  0  0  0
    2.6378    2.3479    0.0000 C   0  0  0  0  0  0  0  0  0  0  0  0
  1  2  1  0  0  0  0
  2  3  1  0  0  0  0
  3  4  2  0  0  0  0
  4  5  1  0  0  0  0
  5  6  2  0  0  0  0
  6  7  1  0  0  0  0
  7  8  1  0  0  0  0
  8  9  2  0  0  0  0
  9 10  1  0  0  0  0
  6 10  1  0  0  0  0
 10 11  2  0  0  0  0
  3 11  1  0  0  0  0
M  END
>  <Catalog ID>
Z1198314976

>  <PlateID>
1198308-R-SPFL-02

>  <Well>
G11

>  <MW (desalted)>
149.147

>  <ClogP>
1.710

>  <HBD>
0

>  <TPSA>
35.260

>  <RotBonds>
1

$$$$

            

 11 11  0  0  0  0            999 V2000
    1.2822    2.3518    0.0000 C   0  0  0  0  0  0  0  0  0  0  0  0
    0.5678    1.9393    0.0000 C   0  0  0  0  0  0  0  0  0  0  0  0
   -0.1467    2.3518    0.0000 C   0  0  0  0  0  0  0  0  0  0  0  0
    0.5678    1.1143    0.0000 N   0  0  0  0  0  0  0  0  0  0  0  0
    1.2352    0.6294    0.0000 N   0  0  0  0  0  0  0  0  0  0  0  0
    0.9803   -0.1553    0.0000 C   0  0  0  0  0  0  0  0  0  0  0  0
    0.1553   -0.1553    0.0000 C   0  0  0  0  0  0  0  0  0  0  0  0
   -0.0997    0.6294    0.0000 C   0  0  0  0  0  0  0  0  0  0  0  0
   -0.8843    0.8843    0.0000 C   0  0  0  0  0  0  0  0  0  0  0  0
   -1.4974    0.3323    0.0000 O   0  0  0  0  0  0  0  0  0  0  0  0
   -1.0558    1.6913    0.0000 O   0  0  0  0  0  0  0  0  0  0  0  0
  1  2  1  0  0  0  0
  2  3  1  0  0  0  0
  2  4  1  0  0  0  0
  4  5  1  0  0  0  0
  5  6  2  0  0  0  0
  6  7  1  0  0  0  0
  7  8  2  0  0  0  0
  4  8  1  0  0  0  0
  8  9  1  0  0  0  0
  9 10  2  0  0  0  0
  9 11  1  0  0  0  0
M  END
>  <Catalog ID>
Z1198161630

>  <PlateID>
1198308-R-SPFL-02

>  <Well>
H02

>  <MW (desalted)>
154.167

>  <ClogP>
1.099

>  <HBD>
1

>  <TPSA>
55.120

>  <RotBonds>
2

$$$$

            

 12 13  0  0  0  0            999 V2000
    4.9502    2.4825    0.0000 O   0  0  0  0  0  0  0  0  0  0  0  0
    4.4358    1.8374    0.0000 C   0  0  0  0  0  0  0  0  0  0  0  0
    4.7938    1.0941    0.0000 C   0  0  0  0  0  0  0  0  0  0  0  0
    4.4358    0.3508    0.0000 C   0  0  0  0  0  0  0  0  0  0  0  0
    3.6315    0.1673    0.0000 N   0  0  0  0  0  0  0  0  0  0  0  0
    2.9865    0.6816    0.0000 C   0  0  0  0  0  0  0  0  0  0  0  0
    2.2720    0.2691    0.0000 C   0  0  0  0  0  0  0  0  0  0  0  0
    1.5575    0.6816    0.0000 C   0  0  0  0  0  0  0  0  0  0  0  0
    1.5575    1.5066    0.0000 C   0  0  0  0  0  0  0  0  0  0  0  0
    2.2720    1.9191    0.0000 C   0  0  0  0  0  0  0  0  0  0  0  0
    2.9865    1.5066    0.0000 C   0  0  0  0  0  0  0  0  0  0  0  0
    3.6315    2.0210    0.0000 N   0  0  0  0  0  0  0  0  0  0  0  0
  1  2  2  0  0  0  0
  2  3  1  0  0  0  0
  3  4  1  0  0  0  0
  4  5  1  0  0  0  0
  5  6  1  0  0  0  0
  6  7  2  0  0  0  0
  7  8  1  0  0  0  0
  8  9  2  0  0  0  0
  9 10  1  0  0  0  0
 10 11  2  0  0  0  0
  6 11  1  0  0  0  0
 11 12  1  0  0  0  0
  2 12  1  0  0  0  0
M  END
>  <Catalog ID>
Z57069349

>  <PlateID>
1198308-R-SPFL-02

>  <Well>
H03

>  <MW (desalted)>
162.189

>  <ClogP>
0.576

>  <HBD>
2

>  <TPSA>
41.130

>  <RotBonds>
0

$$$$

            

 10 10  0  0  0  0            999 V2000
    0.0000    2.4750    0.0000 O   0  0  0  0  0  0  0  0  0  0  0  0
    0.7145    2.0625    0.0000 C   0  0  0  0  0  0  0  0  0  0  0  0
    1.4289    2.4750    0.0000 O   0  0  0  0  0  0  0  0  0  0  0  0
    0.7145    1.2375    0.0000 C   0  0  0  0  0  0  0  0  0  0  0  0
    1.4289    0.8250    0.0000 C   0  0  0  0  0  0  0  0  0  0  0  0
    1.4289   -0.0000    0.0000 C   0  0  0  0  0  0  0  0  0  0  0  0
    0.7145   -0.4125    0.0000 N   0  0  0  0  0  0  0  0  0  0  0  0
    0.0000    0.0000    0.0000 C   0  0  0  0  0  0  0  0  0  0  0  0
    0.0000    0.8250    0.0000 C   0  0  0  0  0  0  0  0  0  0  0  0
   -0.7145    1.2375    0.0000 F   0  0  0  0  0  0  0  0  0  0  0  0
  1  2  1  0  0  0  0
  2  3  2  0  0  0  0
  2  4  1  0  0  0  0
  4  5  2  0  0  0  0
  5  6  1  0  0  0  0
  6  7  2  0  0  0  0
  7  8  1  0  0  0  0
  8  9  2  0  0  0  0
  4  9  1  0  0  0  0
  9 10  1  0  0  0  0
M  END
>  <Catalog ID>
Z1270326283

>  <PlateID>
1198308-R-SPFL-02

>  <Well>
H04

>  <MW (desalted)>
141.100

>  <ClogP>
0.625

>  <HBD>
1

>  <TPSA>
50.190

>  <RotBonds>
1

$$$$

            

 16 16  0  0  0  0            999 V2000
    0.0000    0.0000    0.0000 Cl  0  0  0  0  0  0  0  0  0  0  0  0
    2.0036    0.0000    0.0000 Cl  0  0  0  0  0  0  0  0  0  0  0  0
   -1.4789   -5.0070    0.0000 C   0  0  0  0  0  0  0  0  0  0  0  0
   -1.4789   -4.1820    0.0000 C   0  0  0  0  0  0  0  0  0  0  0  0
   -0.6943   -3.9271    0.0000 C   0  0  0  0  0  0  0  0  0  0  0  0
   -0.2093   -4.5945    0.0000 C   0  0  0  0  0  0  0  0  0  0  0  0
   -0.6943   -5.2619    0.0000 N   0  0  0  0  0  0  0  0  0  0  0  0
   -0.4393   -3.1424    0.0000 N   0  0  0  0  0  0  0  0  0  0  0  0
   -0.9243   -2.4750    0.0000 C   0  0  0  0  0  0  0  0  0  0  0  0
   -0.4393   -1.8076    0.0000 N   0  0  0  0  0  0  0  0  0  0  0  0
    0.3453   -2.0625    0.0000 C   0  0  0  0  0  0  0  0  0  0  0  0
    1.0598   -1.6500    0.0000 C   0  0  0  0  0  0  0  0  0  0  0  0
    1.7742   -2.0625    0.0000 C   0  0  0  0  0  0  0  0  0  0  0  0
    1.7742   -2.8875    0.0000 C   0  0  0  0  0  0  0  0  0  0  0  0
    1.0598   -3.3000    0.0000 C   0  0  0  0  0  0  0  0  0  0  0  0
    0.3453   -2.8875    0.0000 C   0  0  0  0  0  0  0  0  0  0  0  0
  3  4  1  0  0  0  0
  4  5  1  0  0  0  0
  5  6  1  0  0  0  0
  6  7  1  0  0  0  0
  3  7  1  0  0  0  0
  5  8  1  0  0  0  0
  8  9  1  0  0  0  0
  9 10  2  0  0  0  0
 10 11  1  0  0  0  0
 11 12  1  0  0  0  0
 12 13  1  0  0  0  0
 13 14  1  0  0  0  0
 14 15  1  0  0  0  0
 15 16  1  0  0  0  0
 11 16  2  0  0  0  0
  8 16  1  0  0  0  0
M  END
>  <Catalog ID>
Z1869801683

>  <PlateID>
1198308-R-SPFL-02

>  <Well>
H05

>  <MW (desalted)>
191.273

>  <ClogP>
0.581

>  <HBD>
1

>  <TPSA>
29.850

>  <RotBonds>
1

$$$$

            

 11 12  0  0  0  0            999 V2000
   -1.0164    5.6645    0.0000 N   0  0  0  0  0  0  0  0  0  0  0  0
   -0.3020    5.2520    0.0000 C   0  0  0  0  0  0  0  0  0  0  0  0
    0.4125    5.6645    0.0000 C   0  0  0  0  0  0  0  0  0  0  0  0
    1.1270    5.2520    0.0000 N   0  0  0  0  0  0  0  0  0  0  0  0
    1.1270    4.4270    0.0000 C   0  0  0  0  0  0  0  0  0  0  0  0
    1.8414    4.0145    0.0000 C   0  0  0  0  0  0  0  0  0  0  0  0
    1.8414    3.1895    0.0000 C   0  0  0  0  0  0  0  0  0  0  0  0
    2.2539    2.4750    0.0000 C   0  0  0  0  0  0  0  0  0  0  0  0
    1.4289    2.4750    0.0000 C   0  0  0  0  0  0  0  0  0  0  0  0
    0.4125    4.0145    0.0000 N   0  0  0  0  0  0  0  0  0  0  0  0
   -0.3020    4.4270    0.0000 C   0  0  0  0  0  0  0  0  0  0  0  0
  1  2  1  0  0  0  0
  2  3  2  0  0  0  0
  3  4  1  0  0  0  0
  4  5  2  0  0  0  0
  5  6  1  0  0  0  0
  6  7  1  0  0  0  0
  7  8  1  0  0  0  0
  8  9  1  0  0  0  0
  7  9  1  0  0  0  0
  5 10  1  0  0  0  0
 10 11  2  0  0  0  0
  2 11  1  0  0  0  0
M  END
>  <Catalog ID>
Z1407084880

>  <PlateID>
1198308-R-SPFL-02

>  <Well>
H06

>  <MW (desalted)>
149.193

>  <ClogP>
1.148

>  <HBD>
1

>  <TPSA>
51.800

>  <RotBonds>
2

$$$$

            

 13 14  0  0  0  0            999 V2000
   -0.9962   -0.6979    0.0000 F   0  0  0  0  0  0  0  0  0  0  0  0
   -0.1712   -0.6979    0.0000 C   0  0  0  0  0  0  0  0  0  0  0  0
   -0.1712   -1.5229    0.0000 F   0  0  0  0  0  0  0  0  0  0  0  0
   -0.1712    0.1271    0.0000 F   0  0  0  0  0  0  0  0  0  0  0  0
    0.6538   -0.6979    0.0000 C   0  0  0  0  0  0  0  0  0  0  0  0
    1.1387   -0.0305    0.0000 C   0  0  0  0  0  0  0  0  0  0  0  0
    1.9233   -0.2854    0.0000 N   0  0  0  0  0  0  0  0  0  0  0  0
    2.6378    0.1271    0.0000 C   0  0  0  0  0  0  0  0  0  0  0  0
    3.3523   -0.2854    0.0000 C   0  0  0  0  0  0  0  0  0  0  0  0
    3.3523   -1.1104    0.0000 C   0  0  0  0  0  0  0  0  0  0  0  0
    2.6378   -1.5229    0.0000 N   0  0  0  0  0  0  0  0  0  0  0  0
    1.9233   -1.1104    0.0000 C   0  0  0  0  0  0  0  0  0  0  0  0
    1.1387   -1.3654    0.0000 N   0  0  0  0  0  0  0  0  0  0  0  0
  1  2  1  0  0  0  0
  2  3  1  0  0  0  0
  2  4  1  0  0  0  0
  2  5  1  0  0  0  0
  5  6  2  0  0  0  0
  6  7  1  0  0  0  0
  7  8  1  0  0  0  0
  8  9  2  0  0  0  0
  9 10  1  0  0  0  0
 10 11  2  0  0  0  0
 11 12  1  0  0  0  0
  7 12  1  0  0  0  0
 12 13  2  0  0  0  0
  5 13  1  0  0  0  0
M  END
>  <Catalog ID>
Z1258975626

>  <PlateID>
1198308-R-SPFL-02

>  <Well>
H07

>  <MW (desalted)>
187.122

>  <ClogP>
1.216

>  <HBD>
0

>  <TPSA>
30.190

>  <RotBonds>
1

$$$$

            

 10 10  0  0  0  0            999 V2000
    0.5678    1.9393    0.0000 C   0  0  0  0  0  0  0  0  0  0  0  0
    0.5678    1.1143    0.0000 N   0  0  0  0  0  0  0  0  0  0  0  0
    1.2352    0.6294    0.0000 N   0  0  0  0  0  0  0  0  0  0  0  0
    0.9803   -0.1553    0.0000 C   0  0  0  0  0  0  0  0  0  0  0  0
    0.1553   -0.1553    0.0000 C   0  0  0  0  0  0  0  0  0  0  0  0
   -0.3297   -0.8227    0.0000 Cl  0  0  0  0  0  0  0  0  0  0  0  0
   -0.0997    0.6294    0.0000 C   0  0  0  0  0  0  0  0  0  0  0  0
   -0.8843    0.8843    0.0000 C   0  0  0  0  0  0  0  0  0  0  0  0
   -1.0558    1.6913    0.0000 O   0  0  0  0  0  0  0  0  0  0  0  0
   -1.4974    0.3323    0.0000 O   0  0  0  0  0  0  0  0  0  0  0  0
  1  2  1  0  0  0  0
  2  3  1  0  0  0  0
  3  4  2  0  0  0  0
  4  5  1  0  0  0  0
  5  6  1  0  0  0  0
  5  7  2  0  0  0  0
  2  7  1  0  0  0  0
  7  8  1  0  0  0  0
  8  9  2  0  0  0  0
  8 10  1  0  0  0  0
M  END
>  <Catalog ID>
Z275169804

>  <PlateID>
1198308-R-SPFL-02

>  <Well>
H08

>  <MW (desalted)>
160.558

>  <ClogP>
0.389

>  <HBD>
1

>  <TPSA>
55.120

>  <RotBonds>
1

$$$$

            

 13 14  0  0  0  0            999 V2000
    0.7145   -0.4125    0.0000 C   0  0  0  0  0  0  0  0  0  0  0  0
    0.7145   -1.2375    0.0000 C   0  0  0  0  0  0  0  0  0  0  0  0
    1.3819   -1.7224    0.0000 N   0  0  0  0  0  0  0  0  0  0  0  0
    1.1270   -2.5070    0.0000 C   0  0  0  0  0  0  0  0  0  0  0  0
    1.6119   -3.1745    0.0000 N   0  0  0  0  0  0  0  0  0  0  0  0
    0.3020   -2.5070    0.0000 N   0  0  0  0  0  0  0  0  0  0  0  0
    0.0470   -1.7224    0.0000 N   0  0  0  0  0  0  0  0  0  0  0  0
   -0.1830   -3.1745    0.0000 C   0  0  0  0  0  0  0  0  0  0  0  0
    0.1526   -3.9282    0.0000 C   0  0  0  0  0  0  0  0  0  0  0  0
   -0.3323   -4.5956    0.0000 C   0  0  0  0  0  0  0  0  0  0  0  0
   -1.1528   -4.5094    0.0000 C   0  0  0  0  0  0  0  0  0  0  0  0
   -1.4884   -3.7557    0.0000 C   0  0  0  0  0  0  0  0  0  0  0  0
   -1.0034   -3.0882    0.0000 C   0  0  0  0  0  0  0  0  0  0  0  0
  1  2  1  0  0  0  0
  2  3  1  0  0  0  0
  3  4  2  0  0  0  0
  4  5  1  0  0  0  0
  4  6  1  0  0  0  0
  6  7  1  0  0  0  0
  2  7  2  0  0  0  0
  6  8  1  0  0  0  0
  8  9  2  0  0  0  0
  9 10  1  0  0  0  0
 10 11  2  0  0  0  0
 11 12  1  0  0  0  0
 12 13  2  0  0  0  0
  8 13  1  0  0  0  0
M  END
>  <Catalog ID>
Z995040702

>  <PlateID>
1198308-R-SPFL-02

>  <Well>
H09

>  <MW (desalted)>
174.203

>  <ClogP>
1.179

>  <HBD>
1

>  <TPSA>
56.730

>  <RotBonds>
1

$$$$

            

 12 12  0  0  0  0            999 V2000
    0.0000    0.0000    0.0000 Cl  0  0  0  0  0  0  0  0  0  0  0  0
    2.3571   -0.0000    0.0000 C   0  0  0  0  0  0  0  0  0  0  0  0
    2.7696    0.7145    0.0000 C   0  0  0  0  0  0  0  0  0  0  0  0
    3.5946    0.7145    0.0000 C   0  0  0  0  0  0  0  0  0  0  0  0
    4.0071    0.0000    0.0000 C   0  0  0  0  0  0  0  0  0  0  0  0
    3.5946   -0.7145    0.0000 C   0  0  0  0  0  0  0  0  0  0  0  0
    2.7696   -0.7145    0.0000 C   0  0  0  0  0  0  0  0  0  0  0  0
    4.4196    0.7145    0.0000 C   0  0  0  0  0  0  0  0  0  0  0  0
    5.2446    0.7145    0.0000 N   0  0  0  0  0  0  0  0  0  0  0  0
    5.6571   -0.0000    0.0000 C   0  0  0  0  0  0  0  0  0  0  0  0
    5.2446   -0.7145    0.0000 C   0  0  0  0  0  0  0  0  0  0  0  0
    4.4196   -0.7145    0.0000 O   0  0  0  0  0  0  0  0  0  0  0  0
  2  3  1  0  0  0  0
  3  4  1  0  0  0  0
  4  5  1  0  0  0  0
  5  6  1  0  0  0  0
  6  7  1  0  0  0  0
  2  7  1  0  0  0  0
  5  8  1  0  0  0  0
  8  9  1  0  0  0  0
  9 10  1  0  0  0  0
 10 11  1  0  0  0  0
 11 12  1  0  0  0  0
  5 12  1  0  0  0  0
M  END
>  <Catalog ID>
Z1505387420

>  <PlateID>
1198308-R-SPFL-02

>  <Well>
H10

>  <MW (desalted)>
155.237

>  <ClogP>
1.583

>  <HBD>
1

>  <TPSA>
21.260

>  <RotBonds>
0

$$$$

            

 11 11  0  0  0  0            999 V2000
   -0.1467    2.3518    0.0000 C   0  0  0  0  0  0  0  0  0  0  0  0
    0.5678    1.9393    0.0000 C   0  0  0  0  0  0  0  0  0  0  0  0
    1.2822    2.3518    0.0000 C   0  0  0  0  0  0  0  0  0  0  0  0
    0.5678    1.1143    0.0000 C   0  0  0  0  0  0  0  0  0  0  0  0
    1.2352    0.6294    0.0000 C   0  0  0  0  0  0  0  0  0  0  0  0
    0.9803   -0.1553    0.0000 C   0  0  0  0  0  0  0  0  0  0  0  0
    0.1553   -0.1553    0.0000 N   0  0  0  0  0  0  0  0  0  0  0  0
   -0.0997    0.6294    0.0000 O   0  0  0  0  0  0  0  0  0  0  0  0
    1.4652   -0.8227    0.0000 C   0  0  0  0  0  0  0  0  0  0  0  0
    2.2857   -0.7365    0.0000 O   0  0  0  0  0  0  0  0  0  0  0  0
    1.1296   -1.5764    0.0000 O   0  0  0  0  0  0  0  0  0  0  0  0
  1  2  1  0  0  0  0
  2  3  1  0  0  0  0
  2  4  1  0  0  0  0
  4  5  2  0  0  0  0
  5  6  1  0  0  0  0
  6  7  2  0  0  0  0
  7  8  1  0  0  0  0
  4  8  1  0  0  0  0
  6  9  1  0  0  0  0
  9 10  2  0  0  0  0
  9 11  1  0  0  0  0
M  END
>  <Catalog ID>
Z182952422

>  <PlateID>
1198308-R-SPFL-02

>  <Well>
H11

>  <MW (desalted)>
155.151

>  <ClogP>
1.544

>  <HBD>
1

>  <TPSA>
63.330

>  <RotBonds>
2

$$$$

            

 12 13  0  0  0  0            999 V2000
    0.7145   -0.4125    0.0000 C   0  0  0  0  0  0  0  0  0  0  0  0
    0.7145   -1.2375    0.0000 N   0  0  0  0  0  0  0  0  0  0  0  0
    1.3819   -1.7224    0.0000 C   0  0  0  0  0  0  0  0  0  0  0  0
    1.1270   -2.5070    0.0000 N   0  0  0  0  0  0  0  0  0  0  0  0
    0.3020   -2.5070    0.0000 C   0  0  0  0  0  0  0  0  0  0  0  0
    0.0470   -1.7224    0.0000 C   0  0  0  0  0  0  0  0  0  0  0  0
   -0.7376   -1.4675    0.0000 C   0  0  0  0  0  0  0  0  0  0  0  0
   -1.3507   -2.0195    0.0000 C   0  0  0  0  0  0  0  0  0  0  0  0
   -2.1353   -1.7646    0.0000 C   0  0  0  0  0  0  0  0  0  0  0  0
   -2.3068   -0.9576    0.0000 C   0  0  0  0  0  0  0  0  0  0  0  0
   -1.6937   -0.4056    0.0000 C   0  0  0  0  0  0  0  0  0  0  0  0
   -0.9091   -0.6605    0.0000 N   0  0  0  0  0  0  0  0  0  0  0  0
  1  2  1  0  0  0  0
  2  3  1  0  0  0  0
  3  4  2  0  0  0  0
  4  5  1  0  0  0  0
  5  6  2  0  0  0  0
  2  6  1  0  0  0  0
  6  7  1  0  0  0  0
  7  8  1  0  0  0  0
  8  9  1  0  0  0  0
  9 10  1  0  0  0  0
 10 11  1  0  0  0  0
 11 12  1  0  0  0  0
  7 12  1  0  0  0  0
M  END
>  <Catalog ID>
Z988983980

>  <PlateID>
1198308-R-SPFL-03

>  <Well>
A02

>  <MW (desalted)>
165.236

>  <ClogP>
0.338

>  <HBD>
1

>  <TPSA>
29.850

>  <RotBonds>
1

$$$$

            

 10 10  0  0  0  0            999 V2000
   -0.8612    3.5893    0.0000 O   0  0  0  0  0  0  0  0  0  0  0  0
   -0.1467    3.1768    0.0000 C   0  0  0  0  0  0  0  0  0  0  0  0
    0.5678    3.5893    0.0000 O   0  0  0  0  0  0  0  0  0  0  0  0
   -0.1467    2.3518    0.0000 C   0  0  0  0  0  0  0  0  0  0  0  0
    0.5678    1.9393    0.0000 C   0  0  0  0  0  0  0  0  0  0  0  0
    0.5678    1.1143    0.0000 C   0  0  0  0  0  0  0  0  0  0  0  0
    1.2352    0.6294    0.0000 C   0  0  0  0  0  0  0  0  0  0  0  0
    0.9803   -0.1553    0.0000 C   0  0  0  0  0  0  0  0  0  0  0  0
    0.1553   -0.1553    0.0000 S   0  0  0  0  0  0  0  0  0  0  0  0
   -0.0997    0.6294    0.0000 C   0  0  0  0  0  0  0  0  0  0  0  0
  1  2  1  0  0  0  0
  2  3  2  0  0  0  0
  2  4  1  0  0  0  0
  4  5  1  0  0  0  0
  5  6  1  0  0  0  0
  6  7  1  0  0  0  0
  7  8  2  0  0  0  0
  8  9  1  0  0  0  0
  9 10  1  0  0  0  0
  6 10  2  0  0  0  0
M  END
>  <Catalog ID>
Z85923469

>  <PlateID>
1198308-R-SPFL-03

>  <Well>
A03

>  <MW (desalted)>
156.202

>  <ClogP>
1.549

>  <HBD>
1

>  <TPSA>
37.300

>  <RotBonds>
3

$$$$

            

 14 15  0  0  0  0            999 V2000
    1.4289    0.8250    0.0000 O   0  0  0  0  0  0  0  0  0  0  0  0
    1.4289   -0.0000    0.0000 C   0  0  0  0  0  0  0  0  0  0  0  0
    0.7145   -0.4125    0.0000 C   0  0  0  0  0  0  0  0  0  0  0  0
    0.7145   -1.2375    0.0000 C   0  0  0  0  0  0  0  0  0  0  0  0
    1.3819   -1.7224    0.0000 N   0  0  0  0  0  0  0  0  0  0  0  0
    1.1270   -2.5070    0.0000 N   0  0  0  0  0  0  0  0  0  0  0  0
    0.3020   -2.5070    0.0000 C   0  0  0  0  0  0  0  0  0  0  0  0
    0.0470   -1.7224    0.0000 O   0  0  0  0  0  0  0  0  0  0  0  0
   -0.1830   -3.1745    0.0000 C   0  0  0  0  0  0  0  0  0  0  0  0
    0.1526   -3.9282    0.0000 C   0  0  0  0  0  0  0  0  0  0  0  0
   -0.3323   -4.5956    0.0000 C   0  0  0  0  0  0  0  0  0  0  0  0
   -1.1528   -4.5094    0.0000 C   0  0  0  0  0  0  0  0  0  0  0  0
   -1.4884   -3.7557    0.0000 C   0  0  0  0  0  0  0  0  0  0  0  0
   -1.0034   -3.0882    0.0000 C   0  0  0  0  0  0  0  0  0  0  0  0
  1  2  1  0  0  0  0
  2  3  1  0  0  0  0
  3  4  1  0  0  0  0
  4  5  2  0  0  0  0
  5  6  1  0  0  0  0
  6  7  2  0  0  0  0
  7  8  1  0  0  0  0
  4  8  1  0  0  0  0
  7  9  1  0  0  0  0
  9 10  2  0  0  0  0
 10 11  1  0  0  0  0
 11 12  2  0  0  0  0
 12 13  1  0  0  0  0
 13 14  2  0  0  0  0
  9 14  1  0  0  0  0
M  END
>  <Catalog ID>
Z2066895501

>  <PlateID>
1198308-R-SPFL-03

>  <Well>
A04

>  <MW (desalted)>
190.199

>  <ClogP>
-0.347

>  <HBD>
1

>  <TPSA>
59.150

>  <RotBonds>
3

$$$$

            

  0  0  0     0  0            999 V3000
M  V30 BEGIN CTAB
M  V30 COUNTS 13 13 0 0 0
M  V30 BEGIN ATOM
M  V30 1 Cl 0 0 0 0
M  V30 2 N 10.7384 4.0161 0 0
M  V30 3 C 9.4047 3.2461 0 0
M  V30 4 C 9.4047 1.7061 0 0 CFG=2
M  V30 5 C 10.1747 0.3724 0 0
M  V30 6 C 8.6347 0.3724 0 0 CFG=1
M  V30 7 C 7.301 -0.3976 0 0
M  V30 8 C 7.301 -1.9376 0 0
M  V30 9 C 5.9674 -2.7076 0 0
M  V30 10 C 4.6337 -1.9376 0 0
M  V30 11 F 3.3 -2.7076 0 0
M  V30 12 C 4.6337 -0.3976 0 0
M  V30 13 C 5.9674 0.3724 0 0
M  V30 END ATOM
M  V30 BEGIN BOND
M  V30 1 1 2 3
M  V30 2 1 4 3 CFG=3
M  V30 3 1 4 5
M  V30 4 1 6 5
M  V30 5 1 4 6
M  V30 6 1 6 7 CFG=1
M  V30 7 2 7 8
M  V30 8 1 8 9
M  V30 9 2 9 10
M  V30 10 1 10 11
M  V30 11 1 10 12
M  V30 12 2 12 13
M  V30 13 1 7 13
M  V30 END BOND
M  V30 BEGIN COLLECTION
M  V30 MDLV30/STERAC1 ATOMS=(2 4 6)
M  V30 END COLLECTION
M  V30 END CTAB
M  END
>  <Catalog ID>
Z2286737527

>  <PlateID>
1198308-R-SPFL-03

>  <Well>
A05

>  <MW (desalted)>
165.207

>  <ClogP>
1.860

>  <HBD>
1

>  <TPSA>
26.020

>  <RotBonds>
2

$$$$

            

 13 14  0  0  0  0            999 V2000
    0.7145   -0.4125    0.0000 C   0  0  0  0  0  0  0  0  0  0  0  0
    0.7145   -1.2375    0.0000 N   0  0  0  0  0  0  0  0  0  0  0  0
    1.4289   -1.6500    0.0000 C   0  0  0  0  0  0  0  0  0  0  0  0
    1.4289   -2.4750    0.0000 C   0  0  0  0  0  0  0  0  0  0  0  0
    0.7145   -2.8875    0.0000 N   0  0  0  0  0  0  0  0  0  0  0  0
    0.0000   -2.4750    0.0000 C   0  0  0  0  0  0  0  0  0  0  0  0
    0.0000   -1.6500    0.0000 C   0  0  0  0  0  0  0  0  0  0  0  0
   -0.7145   -2.8875    0.0000 C   0  0  0  0  0  0  0  0  0  0  0  0
   -0.7145   -3.7125    0.0000 C   0  0  0  0  0  0  0  0  0  0  0  0
   -1.4289   -4.1250    0.0000 C   0  0  0  0  0  0  0  0  0  0  0  0
   -2.1434   -3.7125    0.0000 C   0  0  0  0  0  0  0  0  0  0  0  0
   -2.1434   -2.8875    0.0000 C   0  0  0  0  0  0  0  0  0  0  0  0
   -1.4289   -2.4750    0.0000 C   0  0  0  0  0  0  0  0  0  0  0  0
  1  2  1  0  0  0  0
  2  3  1  0  0  0  0
  3  4  1  0  0  0  0
  4  5  1  0  0  0  0
  5  6  1  0  0  0  0
  6  7  1  0  0  0  0
  2  7  1  0  0  0  0
  6  8  1  0  0  0  0
  8  9  2  0  0  0  0
  9 10  1  0  0  0  0
 10 11  2  0  0  0  0
 11 12  1  0  0  0  0
 12 13  2  0  0  0  0
  8 13  1  0  0  0  0
M  END
>  <Catalog ID>
Z104508454

>  <PlateID>
1198308-R-SPFL-03

>  <Well>
A06

>  <MW (desalted)>
176.258

>  <ClogP>
1.711

>  <HBD>
1

>  <TPSA>
15.270

>  <RotBonds>
1

$$$$

            

 10 10  0  0  0  0            999 V2000
   -0.1467    3.1768    0.0000 C   0  0  0  0  0  0  0  0  0  0  0  0
   -0.1467    2.3518    0.0000 C   0  0  0  0  0  0  0  0  0  0  0  0
   -0.8612    1.9393    0.0000 C   0  0  0  0  0  0  0  0  0  0  0  0
    0.5678    1.9393    0.0000 C   0  0  0  0  0  0  0  0  0  0  0  0
    0.5678    1.1143    0.0000 C   0  0  0  0  0  0  0  0  0  0  0  0
    1.2352    0.6294    0.0000 C   0  0  0  0  0  0  0  0  0  0  0  0
    0.9803   -0.1553    0.0000 C   0  0  0  0  0  0  0  0  0  0  0  0
    1.4652   -0.8227    0.0000 N   0  0  0  0  0  0  0  0  0  0  0  0
    0.1553   -0.1553    0.0000 O   0  0  0  0  0  0  0  0  0  0  0  0
   -0.0997    0.6294    0.0000 N   0  0  0  0  0  0  0  0  0  0  0  0
  1  2  1  0  0  0  0
  2  3  1  0  0  0  0
  2  4  1  0  0  0  0
  4  5  1  0  0  0  0
  5  6  1  0  0  0  0
  6  7  2  0  0  0  0
  7  8  1  0  0  0  0
  7  9  1  0  0  0  0
  9 10  1  0  0  0  0
  5 10  2  0  0  0  0
M  END
>  <Catalog ID>
Z360168616

>  <PlateID>
1198308-R-SPFL-03

>  <Well>
A07

>  <MW (desalted)>
140.183

>  <ClogP>
1.495

>  <HBD>
1

>  <TPSA>
52.050

>  <RotBonds>
2

$$$$

            

 13 12  0  0  0  0            999 V2000
    0.0000    0.0000    0.0000 Cl  0  0  0  0  0  0  0  0  0  0  0  0
    2.0036    0.0000    0.0000 Cl  0  0  0  0  0  0  0  0  0  0  0  0
    1.6519   -2.5769    0.0000 C   0  0  0  0  0  0  0  0  0  0  0  0
    1.2940   -3.3202    0.0000 C   0  0  0  0  0  0  0  0  0  0  0  0
    0.4896   -3.5038    0.0000 O   0  0  0  0  0  0  0  0  0  0  0  0
   -0.1554   -2.9894    0.0000 C   0  0  0  0  0  0  0  0  0  0  0  0
   -0.8698   -3.4019    0.0000 N   0  0  0  0  0  0  0  0  0  0  0  0
   -1.5843   -2.9894    0.0000 C   0  0  0  0  0  0  0  0  0  0  0  0
   -1.5843   -2.1644    0.0000 C   0  0  0  0  0  0  0  0  0  0  0  0
   -0.8698   -1.7519    0.0000 C   0  0  0  0  0  0  0  0  0  0  0  0
   -0.1554   -2.1644    0.0000 C   0  0  0  0  0  0  0  0  0  0  0  0
    0.4896   -1.6500    0.0000 C   0  0  0  0  0  0  0  0  0  0  0  0
    1.2940   -1.8336    0.0000 N   0  0  0  0  0  0  0  0  0  0  0  0
  3  4  1  0  0  0  0
  4  5  1  0  0  0  0
  5  6  1  0  0  0  0
  6  7  2  0  0  0  0
  7  8  1  0  0  0  0
  8  9  2  0  0  0  0
  9 10  1  0  0  0  0
 10 11  2  0  0  0  0
  6 11  1  0  0  0  0
 11 12  1  0  0  0  0
 12 13  1  0  0  0  0
  3 13  1  0  0  0  0
M  END
>  <Catalog ID>
Z2143572903

>  <PlateID>
1198308-R-SPFL-03

>  <Well>
A08

>  <MW (desalted)>
150.178

>  <ClogP>
0.299

>  <HBD>
1

>  <TPSA>
34.150

>  <RotBonds>
0

$$$$

            

 16 17  0  0  0  0            999 V2000
    0.7145   -0.4125    0.0000 C   0  0  0  0  0  0  0  0  0  0  0  0
    0.7145   -1.2375    0.0000 C   0  0  0  0  0  0  0  0  0  0  0  0
    1.4289   -1.6500    0.0000 N   0  0  0  0  0  0  0  0  0  0  0  0
    1.4289   -2.4750    0.0000 C   0  0  0  0  0  0  0  0  0  0  0  0
    0.7145   -2.8875    0.0000 C   0  0  0  0  0  0  0  0  0  0  0  0
    0.0000   -2.4750    0.0000 C   0  0  0  0  0  0  0  0  0  0  0  0
    0.0000   -1.6500    0.0000 C   0  0  0  0  0  0  0  0  0  0  0  0
   -0.7145   -1.2375    0.0000 C   0  0  0  0  0  0  0  0  0  0  0  0
   -0.7145   -0.4125    0.0000 O   0  0  0  0  0  0  0  0  0  0  0  0
   -1.4289   -1.6500    0.0000 O   0  0  0  0  0  0  0  0  0  0  0  0
    2.1434   -2.8875    0.0000 C   0  0  0  0  0  0  0  0  0  0  0  0
    2.8579   -2.4750    0.0000 C   0  0  0  0  0  0  0  0  0  0  0  0
    3.5724   -2.8875    0.0000 C   0  0  0  0  0  0  0  0  0  0  0  0
    3.5724   -3.7125    0.0000 C   0  0  0  0  0  0  0  0  0  0  0  0
    2.8579   -4.1250    0.0000 C   0  0  0  0  0  0  0  0  0  0  0  0
    2.1434   -3.7125    0.0000 C   0  0  0  0  0  0  0  0  0  0  0  0
  1  2  1  0  0  0  0
  2  3  2  0  0  0  0
  3  4  1  0  0  0  0
  4  5  2  0  0  0  0
  5  6  1  0  0  0  0
  6  7  2  0  0  0  0
  2  7  1  0  0  0  0
  7  8  1  0  0  0  0
  8  9  2  0  0  0  0
  8 10  1  0  0  0  0
  4 11  1  0  0  0  0
 11 12  2  0  0  0  0
 12 13  1  0  0  0  0
 13 14  2  0  0  0  0
 14 15  1  0  0  0  0
 15 16  2  0  0  0  0
 11 16  1  0  0  0  0
M  END
>  <Catalog ID>
Z164706354

>  <PlateID>
1198308-R-SPFL-03

>  <Well>
A09

>  <MW (desalted)>
213.232

>  <ClogP>
3.096

>  <HBD>
1

>  <TPSA>
50.190

>  <RotBonds>
2

$$$$

            

 11 12  0  0  0  0            999 V2000
    0.0000   -1.6500    0.0000 C   0  0  0  0  0  0  0  0  0  0  0  0
    0.7145   -1.2375    0.0000 C   0  0  0  0  0  0  0  0  0  0  0  0
    0.7145   -0.4125    0.0000 C   0  0  0  0  0  0  0  0  0  0  0  0
    1.4289    0.0000    0.0000 N   0  0  0  0  0  0  0  0  0  0  0  0
    2.1434   -0.4125    0.0000 C   0  0  0  0  0  0  0  0  0  0  0  0
    2.8579    0.0000    0.0000 C   0  0  0  0  0  0  0  0  0  0  0  0
    3.5724   -0.4125    0.0000 C   0  0  0  0  0  0  0  0  0  0  0  0
    3.5724   -1.2375    0.0000 C   0  0  0  0  0  0  0  0  0  0  0  0
    2.8579   -1.6500    0.0000 C   0  0  0  0  0  0  0  0  0  0  0  0
    2.1434   -1.2375    0.0000 C   0  0  0  0  0  0  0  0  0  0  0  0
    1.4289   -1.6500    0.0000 O   0  0  0  0  0  0  0  0  0  0  0  0
  1  2  1  0  0  0  0
  2  3  1  0  0  0  0
  3  4  1  0  0  0  0
  4  5  1  0  0  0  0
  5  6  2  0  0  0  0
  6  7  1  0  0  0  0
  7  8  2  0  0  0  0
  8  9  1  0  0  0  0
  9 10  2  0  0  0  0
  5 10  1  0  0  0  0
 10 11  1  0  0  0  0
  2 11  1  0  0  0  0
M  END
>  <Catalog ID>
Z1165160777

>  <PlateID>
1198308-R-SPFL-03

>  <Well>
A10

>  <MW (desalted)>
149.190

>  <ClogP>
2.179

>  <HBD>
1

>  <TPSA>
21.260

>  <RotBonds>
0

$$$$

            

 13 14  0  0  0  0            999 V2000
    2.0367   -0.4741    0.0000 N   0  0  0  0  0  0  0  0  0  0  0  0
    2.0367   -1.2991    0.0000 C   0  0  0  0  0  0  0  0  0  0  0  0
    2.7041   -1.7840    0.0000 C   0  0  0  0  0  0  0  0  0  0  0  0
    2.4492   -2.5687    0.0000 N   0  0  0  0  0  0  0  0  0  0  0  0
    1.6242   -2.5687    0.0000 N   0  0  0  0  0  0  0  0  0  0  0  0
    1.1393   -3.2361    0.0000 C   0  0  0  0  0  0  0  0  0  0  0  0
    0.3188   -3.1499    0.0000 C   0  0  0  0  0  0  0  0  0  0  0  0
   -0.1661   -3.8173    0.0000 C   0  0  0  0  0  0  0  0  0  0  0  0
   -0.9866   -3.7311    0.0000 C   0  0  0  0  0  0  0  0  0  0  0  0
   -1.3222   -2.9774    0.0000 C   0  0  0  0  0  0  0  0  0  0  0  0
   -0.8372   -2.3099    0.0000 C   0  0  0  0  0  0  0  0  0  0  0  0
   -0.0168   -2.3962    0.0000 C   0  0  0  0  0  0  0  0  0  0  0  0
    1.3693   -1.7840    0.0000 C   0  0  0  0  0  0  0  0  0  0  0  0
  1  2  1  0  0  0  0
  2  3  1  0  0  0  0
  3  4  2  0  0  0  0
  4  5  1  0  0  0  0
  5  6  1  0  0  0  0
  6  7  1  0  0  0  0
  7  8  2  0  0  0  0
  8  9  1  0  0  0  0
  9 10  2  0  0  0  0
 10 11  1  0  0  0  0
 11 12  2  0  0  0  0
  7 12  1  0  0  0  0
  5 13  1  0  0  0  0
  2 13  2  0  0  0  0
M  END
>  <Catalog ID>
Z275127874

>  <PlateID>
1198308-R-SPFL-03

>  <Well>
A11

>  <MW (desalted)>
173.214

>  <ClogP>
1.430

>  <HBD>
1

>  <TPSA>
43.840

>  <RotBonds>
2

$$$$

            

 13 14  0  0  0  0            999 V2000
    2.0367   -0.4741    0.0000 O   0  0  0  0  0  0  0  0  0  0  0  0
    2.0367   -1.2991    0.0000 C   0  0  0  0  0  0  0  0  0  0  0  0
    2.7041   -1.7840    0.0000 N   0  0  0  0  0  0  0  0  0  0  0  0
    2.4492   -2.5687    0.0000 C   0  0  0  0  0  0  0  0  0  0  0  0
    1.6242   -2.5687    0.0000 C   0  0  0  0  0  0  0  0  0  0  0  0
    1.3693   -1.7840    0.0000 C   0  0  0  0  0  0  0  0  0  0  0  0
    0.5846   -1.5291    0.0000 C   0  0  0  0  0  0  0  0  0  0  0  0
    0.4131   -0.7221    0.0000 C   0  0  0  0  0  0  0  0  0  0  0  0
   -0.3715   -0.4672    0.0000 C   0  0  0  0  0  0  0  0  0  0  0  0
   -0.5430    0.3398    0.0000 C   0  0  0  0  0  0  0  0  0  0  0  0
    0.0701    0.8918    0.0000 C   0  0  0  0  0  0  0  0  0  0  0  0
    0.8547    0.6369    0.0000 C   0  0  0  0  0  0  0  0  0  0  0  0
    1.0262   -0.1701    0.0000 C   0  0  0  0  0  0  0  0  0  0  0  0
  1  2  2  0  0  0  0
  2  3  1  0  0  0  0
  3  4  1  0  0  0  0
  4  5  1  0  0  0  0
  5  6  1  0  0  0  0
  2  6  1  0  0  0  0
  6  7  1  0  0  0  0
  7  8  1  0  0  0  0
  8  9  2  0  0  0  0
  9 10  1  0  0  0  0
 10 11  2  0  0  0  0
 11 12  1  0  0  0  0
 12 13  2  0  0  0  0
  8 13  1  0  0  0  0
M  END
>  <Catalog ID>
Z1255435851

>  <PlateID>
1198308-R-SPFL-03

>  <Well>
B02

>  <MW (desalted)>
175.227

>  <ClogP>
1.114

>  <HBD>
1

>  <TPSA>
29.100

>  <RotBonds>
2

$$$$

            

 13 13  0  0  0  0            999 V2000
    1.4289    3.3000    0.0000 O   0  0  0  0  0  0  0  0  0  0  0  0
    1.4289    2.4750    0.0000 C   0  0  0  0  0  0  0  0  0  0  0  0
    2.1434    2.0625    0.0000 O   0  0  0  0  0  0  0  0  0  0  0  0
    0.7145    2.0625    0.0000 C   0  0  0  0  0  0  0  0  0  0  0  0
    0.7145    1.2375    0.0000 C   0  0  0  0  0  0  0  0  0  0  0  0
    1.4289    0.8250    0.0000 C   0  0  0  0  0  0  0  0  0  0  0  0
    1.4289   -0.0000    0.0000 C   0  0  0  0  0  0  0  0  0  0  0  0
    0.7145   -0.4125    0.0000 C   0  0  0  0  0  0  0  0  0  0  0  0
    0.0000    0.0000    0.0000 C   0  0  0  0  0  0  0  0  0  0  0  0
    0.0000    0.8250    0.0000 C   0  0  0  0  0  0  0  0  0  0  0  0
   -0.7145   -0.4125    0.0000 C   0  0  0  0  0  0  0  0  0  0  0  0
   -0.7145   -1.2375    0.0000 F   0  0  0  0  0  0  0  0  0  0  0  0
   -1.4289    0.0000    0.0000 F   0  0  0  0  0  0  0  0  0  0  0  0
  1  2  1  0  0  0  0
  2  3  2  0  0  0  0
  2  4  1  0  0  0  0
  4  5  1  0  0  0  0
  5  6  2  0  0  0  0
  6  7  1  0  0  0  0
  7  8  2  0  0  0  0
  8  9  1  0  0  0  0
  9 10  2  0  0  0  0
  5 10  1  0  0  0  0
  9 11  1  0  0  0  0
 11 12  1  0  0  0  0
 11 13  1  0  0  0  0
M  END
>  <Catalog ID>
Z1198264657

>  <PlateID>
1198308-R-SPFL-03

>  <Well>
B03

>  <MW (desalted)>
186.155

>  <ClogP>
1.609

>  <HBD>
1

>  <TPSA>
37.300

>  <RotBonds>
3

$$$$

            

 11 12  0  0  0  0            999 V2000
    0.0768   -2.3215    0.0000 O   0  0  0  0  0  0  0  0  0  0  0  0
    0.8838   -2.1500    0.0000 C   0  0  0  0  0  0  0  0  0  0  0  0
    1.1387   -1.3654    0.0000 C   0  0  0  0  0  0  0  0  0  0  0  0
    0.6538   -0.6979    0.0000 C   0  0  0  0  0  0  0  0  0  0  0  0
    1.1387   -0.0305    0.0000 N   0  0  0  0  0  0  0  0  0  0  0  0
    1.9233   -0.2854    0.0000 N   0  0  0  0  0  0  0  0  0  0  0  0
    2.6378    0.1271    0.0000 C   0  0  0  0  0  0  0  0  0  0  0  0
    3.3523   -0.2854    0.0000 C   0  0  0  0  0  0  0  0  0  0  0  0
    3.3523   -1.1104    0.0000 C   0  0  0  0  0  0  0  0  0  0  0  0
    2.6378   -1.5229    0.0000 C   0  0  0  0  0  0  0  0  0  0  0  0
    1.9233   -1.1104    0.0000 C   0  0  0  0  0  0  0  0  0  0  0  0
  1  2  1  0  0  0  0
  2  3  1  0  0  0  0
  3  4  1  0  0  0  0
  4  5  2  0  0  0  0
  5  6  1  0  0  0  0
  6  7  1  0  0  0  0
  7  8  1  0  0  0  0
  8  9  1  0  0  0  0
  9 10  1  0  0  0  0
 10 11  1  0  0  0  0
  3 11  2  0  0  0  0
  6 11  1  0  0  0  0
M  END
>  <Catalog ID>
Z1504685031

>  <PlateID>
1198308-R-SPFL-03

>  <Well>
B04

>  <MW (desalted)>
152.194

>  <ClogP>
0.062

>  <HBD>
1

>  <TPSA>
38.050

>  <RotBonds>
1

$$$$

            

 11 12  0  0  0  0            999 V2000
   -0.1712   -0.6979    0.0000 N   0  0  0  0  0  0  0  0  0  0  0  0
    0.6538   -0.6979    0.0000 C   0  0  0  0  0  0  0  0  0  0  0  0
    1.1387   -0.0305    0.0000 N   0  0  0  0  0  0  0  0  0  0  0  0
    1.9233   -0.2854    0.0000 C   0  0  0  0  0  0  0  0  0  0  0  0
    2.6378    0.1271    0.0000 C   0  0  0  0  0  0  0  0  0  0  0  0
    3.3523   -0.2854    0.0000 C   0  0  0  0  0  0  0  0  0  0  0  0
    4.0668    0.1271    0.0000 F   0  0  0  0  0  0  0  0  0  0  0  0
    3.3523   -1.1104    0.0000 C   0  0  0  0  0  0  0  0  0  0  0  0
    2.6378   -1.5229    0.0000 C   0  0  0  0  0  0  0  0  0  0  0  0
    1.9233   -1.1104    0.0000 C   0  0  0  0  0  0  0  0  0  0  0  0
    1.1387   -1.3654    0.0000 O   0  0  0  0  0  0  0  0  0  0  0  0
  1  2  1  0  0  0  0
  2  3  2  0  0  0  0
  3  4  1  0  0  0  0
  4  5  2  0  0  0  0
  5  6  1  0  0  0  0
  6  7  1  0  0  0  0
  6  8  2  0  0  0  0
  8  9  1  0  0  0  0
  9 10  2  0  0  0  0
  4 10  1  0  0  0  0
 10 11  1  0  0  0  0
  2 11  1  0  0  0  0
M  END
>  <Catalog ID>
Z979487600

>  <PlateID>
1198308-R-SPFL-03

>  <Well>
B05

>  <MW (desalted)>
152.126

>  <ClogP>
1.323

>  <HBD>
1

>  <TPSA>
52.050

>  <RotBonds>
0

$$$$

            

 13 12  0  0  0  0            999 V2000
    0.0000    0.0000    0.0000 Cl  0  0  0  0  0  0  0  0  0  0  0  0
    2.3571    2.3719    0.0000 N   0  0  0  0  0  0  0  0  0  0  0  0
    3.0716    1.9594    0.0000 C   0  0  0  0  0  0  0  0  0  0  0  0
    3.0716    1.1344    0.0000 C   0  0  0  0  0  0  0  0  0  0  0  0
    3.7861    0.7219    0.0000 N   0  0  0  0  0  0  0  0  0  0  0  0
    3.7861   -0.1031    0.0000 C   0  0  0  0  0  0  0  0  0  0  0  0
    3.0716   -0.5156    0.0000 C   0  0  0  0  0  0  0  0  0  0  0  0
    2.3571   -0.1031    0.0000 C   0  0  0  0  0  0  0  0  0  0  0  0
    2.3571    0.7219    0.0000 N   0  0  0  0  0  0  0  0  0  0  0  0
    3.0716   -1.3406    0.0000 C   0  0  0  0  0  0  0  0  0  0  0  0
    3.0716   -2.1656    0.0000 F   0  0  0  0  0  0  0  0  0  0  0  0
    2.2466   -1.3406    0.0000 F   0  0  0  0  0  0  0  0  0  0  0  0
    3.8966   -1.3406    0.0000 F   0  0  0  0  0  0  0  0  0  0  0  0
  2  3  1  0  0  0  0
  3  4  1  0  0  0  0
  4  5  2  0  0  0  0
  5  6  1  0  0  0  0
  6  7  2  0  0  0  0
  7  8  1  0  0  0  0
  8  9  2  0  0  0  0
  4  9  1  0  0  0  0
  7 10  1  0  0  0  0
 10 11  1  0  0  0  0
 10 12  1  0  0  0  0
 10 13  1  0  0  0  0
M  END
>  <Catalog ID>
Z2235399139

>  <PlateID>
1198308-R-SPFL-03

>  <Well>
B06

>  <MW (desalted)>
177.127

>  <ClogP>
-0.410

>  <HBD>
1

>  <TPSA>
51.800

>  <RotBonds>
2

$$$$

            

 12 13  0  0  0  0            999 V2000
    1.4289   -2.4750    0.0000 C   0  0  0  0  0  0  0  0  0  0  0  0
    1.4289   -1.6500    0.0000 N   0  0  0  0  0  0  0  0  0  0  0  0
    0.7145   -1.2375    0.0000 N   0  0  0  0  0  0  0  0  0  0  0  0
    0.7145   -0.4125    0.0000 C   0  0  0  0  0  0  0  0  0  0  0  0
    1.4289    0.0000    0.0000 C   0  0  0  0  0  0  0  0  0  0  0  0
    1.4289    0.8250    0.0000 O   0  0  0  0  0  0  0  0  0  0  0  0
    2.1434   -0.4125    0.0000 C   0  0  0  0  0  0  0  0  0  0  0  0
    2.8579    0.0000    0.0000 C   0  0  0  0  0  0  0  0  0  0  0  0
    3.5724   -0.4125    0.0000 C   0  0  0  0  0  0  0  0  0  0  0  0
    3.5724   -1.2375    0.0000 C   0  0  0  0  0  0  0  0  0  0  0  0
    2.8579   -1.6500    0.0000 C   0  0  0  0  0  0  0  0  0  0  0  0
    2.1434   -1.2375    0.0000 C   0  0  0  0  0  0  0  0  0  0  0  0
  1  2  1  0  0  0  0
  2  3  1  0  0  0  0
  3  4  2  0  0  0  0
  4  5  1  0  0  0  0
  5  6  2  0  0  0  0
  5  7  1  0  0  0  0
  7  8  2  0  0  0  0
  8  9  1  0  0  0  0
  9 10  2  0  0  0  0
 10 11  1  0  0  0  0
 11 12  2  0  0  0  0
  2 12  1  0  0  0  0
  7 12  1  0  0  0  0
M  END
>  <Catalog ID>
Z360149094

>  <PlateID>
1198308-R-SPFL-03

>  <Well>
B07

>  <MW (desalted)>
160.173

>  <ClogP>
0.487

>  <HBD>
0

>  <TPSA>
32.670

>  <RotBonds>
0

$$$$

            

 12 13  0  0  0  0            999 V2000
    0.7145   -0.4125    0.0000 N   0  0  0  0  0  0  0  0  0  0  0  0
    0.7145   -1.2375    0.0000 C   0  0  0  0  0  0  0  0  0  0  0  0
    1.3819   -1.7224    0.0000 N   0  0  0  0  0  0  0  0  0  0  0  0
    1.1270   -2.5070    0.0000 N   0  0  0  0  0  0  0  0  0  0  0  0
    0.3020   -2.5070    0.0000 C   0  0  0  0  0  0  0  0  0  0  0  0
    0.0470   -1.7224    0.0000 O   0  0  0  0  0  0  0  0  0  0  0  0
   -0.1830   -3.1745    0.0000 C   0  0  0  0  0  0  0  0  0  0  0  0
    0.1526   -3.9282    0.0000 C   0  0  0  0  0  0  0  0  0  0  0  0
   -0.3323   -4.5956    0.0000 C   0  0  0  0  0  0  0  0  0  0  0  0
   -1.1528   -4.5094    0.0000 C   0  0  0  0  0  0  0  0  0  0  0  0
   -1.4884   -3.7557    0.0000 C   0  0  0  0  0  0  0  0  0  0  0  0
   -1.0034   -3.0882    0.0000 C   0  0  0  0  0  0  0  0  0  0  0  0
  1  2  1  0  0  0  0
  2  3  2  0  0  0  0
  3  4  1  0  0  0  0
  4  5  2  0  0  0  0
  5  6  1  0  0  0  0
  2  6  1  0  0  0  0
  5  7  1  0  0  0  0
  7  8  1  0  0  0  0
  8  9  1  0  0  0  0
  9 10  1  0  0  0  0
 10 11  1  0  0  0  0
 11 12  1  0  0  0  0
  7 12  1  0  0  0  0
M  END
>  <Catalog ID>
Z285233834

>  <PlateID>
1198308-R-SPFL-03

>  <Well>
B08

>  <MW (desalted)>
167.208

>  <ClogP>
1.107

>  <HBD>
1

>  <TPSA>
64.940

>  <RotBonds>
1

$$$$

            

 11 11  0  0  0  0            999 V2000
    1.4289    2.4750    0.0000 C   0  0  0  0  0  0  0  0  0  0  0  0
    0.7145    2.0625    0.0000 O   0  0  0  0  0  0  0  0  0  0  0  0
    0.7145    1.2375    0.0000 C   0  0  0  0  0  0  0  0  0  0  0  0
    1.4289    0.8250    0.0000 C   0  0  0  0  0  0  0  0  0  0  0  0
    1.4289   -0.0000    0.0000 C   0  0  0  0  0  0  0  0  0  0  0  0
    0.7145   -0.4125    0.0000 C   0  0  0  0  0  0  0  0  0  0  0  0
    0.0000    0.0000    0.0000 C   0  0  0  0  0  0  0  0  0  0  0  0
    0.0000    0.8250    0.0000 C   0  0  0  0  0  0  0  0  0  0  0  0
   -0.7145   -0.4125    0.0000 C   0  0  0  0  0  0  0  0  0  0  0  0
   -0.7145   -1.2375    0.0000 O   0  0  0  0  0  0  0  0  0  0  0  0
   -1.4289    0.0000    0.0000 O   0  0  0  0  0  0  0  0  0  0  0  0
  1  2  1  0  0  0  0
  2  3  1  0  0  0  0
  3  4  2  0  0  0  0
  4  5  1  0  0  0  0
  5  6  2  0  0  0  0
  6  7  1  0  0  0  0
  7  8  2  0  0  0  0
  3  8  1  0  0  0  0
  7  9  1  0  0  0  0
  9 10  2  0  0  0  0
  9 11  1  0  0  0  0
M  END
>  <Catalog ID>
Z57127526

>  <PlateID>
1198308-R-SPFL-03

>  <Well>
B09

>  <MW (desalted)>
152.147

>  <ClogP>
2.023

>  <HBD>
1

>  <TPSA>
46.530

>  <RotBonds>
2

$$$$

            

 12 14  0  0  0  0            999 V2000
    1.0553   -2.9570    0.0000 C   0  0  0  0  0  0  0  0  0  0  0  0
    0.2707   -2.7020    0.0000 C   0  0  0  0  0  0  0  0  0  0  0  0
    0.8838   -2.1500    0.0000 C   0  0  0  0  0  0  0  0  0  0  0  0
    1.1387   -1.3654    0.0000 C   0  0  0  0  0  0  0  0  0  0  0  0
    0.6538   -0.6979    0.0000 C   0  0  0  0  0  0  0  0  0  0  0  0
    1.1387   -0.0305    0.0000 N   0  0  0  0  0  0  0  0  0  0  0  0
    1.9233   -0.2854    0.0000 N   0  0  0  0  0  0  0  0  0  0  0  0
    2.6378    0.1271    0.0000 C   0  0  0  0  0  0  0  0  0  0  0  0
    3.3523   -0.2854    0.0000 C   0  0  0  0  0  0  0  0  0  0  0  0
    3.3523   -1.1104    0.0000 C   0  0  0  0  0  0  0  0  0  0  0  0
    2.6378   -1.5229    0.0000 N   0  0  0  0  0  0  0  0  0  0  0  0
    1.9233   -1.1104    0.0000 C   0  0  0  0  0  0  0  0  0  0  0  0
  1  2  1  0  0  0  0
  2  3  1  0  0  0  0
  1  3  1  0  0  0  0
  3  4  1  0  0  0  0
  4  5  1  0  0  0  0
  5  6  2  0  0  0  0
  6  7  1  0  0  0  0
  7  8  1  0  0  0  0
  8  9  1  0  0  0  0
  9 10  1  0  0  0  0
 10 11  1  0  0  0  0
 11 12  1  0  0  0  0
  4 12  2  0  0  0  0
  7 12  1  0  0  0  0
M  END
>  <Catalog ID>
Z2507870736

>  <PlateID>
1198308-R-SPFL-03

>  <Well>
B10

>  <MW (desalted)>
163.220

>  <ClogP>
0.991

>  <HBD>
1

>  <TPSA>
29.850

>  <RotBonds>
1

$$$$

            

 10 11  0  0  0  0            999 V2000
    3.2789    2.0625    0.0000 O   0  0  0  0  0  0  0  0  0  0  0  0
    3.2789    1.2375    0.0000 C   0  0  0  0  0  0  0  0  0  0  0  0
    3.9934    0.8250    0.0000 N   0  0  0  0  0  0  0  0  0  0  0  0
    3.9934    0.0000    0.0000 C   0  0  0  0  0  0  0  0  0  0  0  0
    3.2789   -0.4125    0.0000 N   0  0  0  0  0  0  0  0  0  0  0  0
    2.5645    0.0000    0.0000 C   0  0  0  0  0  0  0  0  0  0  0  0
    1.7798   -0.2549    0.0000 C   0  0  0  0  0  0  0  0  0  0  0  0
    1.2949    0.4125    0.0000 C   0  0  0  0  0  0  0  0  0  0  0  0
    1.7798    1.0799    0.0000 S   0  0  0  0  0  0  0  0  0  0  0  0
    2.5645    0.8250    0.0000 C   0  0  0  0  0  0  0  0  0  0  0  0
  1  2  2  0  0  0  0
  2  3  1  0  0  0  0
  3  4  1  0  0  0  0
  4  5  2  0  0  0  0
  5  6  1  0  0  0  0
  6  7  1  0  0  0  0
  7  8  2  0  0  0  0
  8  9  1  0  0  0  0
  9 10  1  0  0  0  0
  2 10  1  0  0  0  0
  6 10  2  0  0  0  0
M  END
>  <Catalog ID>
Z166665672

>  <PlateID>
1198308-R-SPFL-03

>  <Well>
B11

>  <MW (desalted)>
152.174

>  <ClogP>
0.124

>  <HBD>
1

>  <TPSA>
41.460

>  <RotBonds>
0

$$$$

            

 12 13  0  0  0  0            999 V2000
   -0.1712   -0.6979    0.0000 C   0  0  0  0  0  0  0  0  0  0  0  0
    0.6538   -0.6979    0.0000 C   0  0  0  0  0  0  0  0  0  0  0  0
    1.1387   -0.0305    0.0000 C   0  0  0  0  0  0  0  0  0  0  0  0
    1.9233   -0.2854    0.0000 C   0  0  0  0  0  0  0  0  0  0  0  0
    2.6378    0.1271    0.0000 C   0  0  0  0  0  0  0  0  0  0  0  0
    3.3523   -0.2854    0.0000 C   0  0  0  0  0  0  0  0  0  0  0  0
    4.0668    0.1271    0.0000 C   0  0  0  0  0  0  0  0  0  0  0  0
    4.0668    0.9521    0.0000 O   0  0  0  0  0  0  0  0  0  0  0  0
    3.3523   -1.1104    0.0000 C   0  0  0  0  0  0  0  0  0  0  0  0
    2.6378   -1.5229    0.0000 C   0  0  0  0  0  0  0  0  0  0  0  0
    1.9233   -1.1104    0.0000 C   0  0  0  0  0  0  0  0  0  0  0  0
    1.1387   -1.3654    0.0000 O   0  0  0  0  0  0  0  0  0  0  0  0
  1  2  1  0  0  0  0
  2  3  1  0  0  0  0
  3  4  1  0  0  0  0
  4  5  2  0  0  0  0
  5  6  1  0  0  0  0
  6  7  1  0  0  0  0
  7  8  1  0  0  0  0
  6  9  2  0  0  0  0
  9 10  1  0  0  0  0
 10 11  2  0  0  0  0
  4 11  1  0  0  0  0
 11 12  1  0  0  0  0
  2 12  1  0  0  0  0
M  END
>  <Catalog ID>
Z274787916

>  <PlateID>
1198308-R-SPFL-03

>  <Well>
C02

>  <MW (desalted)>
164.201

>  <ClogP>
1.677

>  <HBD>
1

>  <TPSA>
29.460

>  <RotBonds>
1

$$$$

            

 11 11  0  0  0  0            999 V2000
    0.1842    1.8695    0.0000 O   0  0  0  0  0  0  0  0  0  0  0  0
    0.7145    1.2375    0.0000 C   0  0  0  0  0  0  0  0  0  0  0  0
    1.4289    0.8250    0.0000 C   0  0  0  0  0  0  0  0  0  0  0  0
    1.4289   -0.0000    0.0000 C   0  0  0  0  0  0  0  0  0  0  0  0
    0.7145   -0.4125    0.0000 O   0  0  0  0  0  0  0  0  0  0  0  0
    0.0000    0.0000    0.0000 C   0  0  0  0  0  0  0  0  0  0  0  0
    0.0000    0.8250    0.0000 C   0  0  0  0  0  0  0  0  0  0  0  0
    1.2448    1.8695    0.0000 C   0  0  0  0  0  0  0  0  0  0  0  0
    1.7751    2.5015    0.0000 F   0  0  0  0  0  0  0  0  0  0  0  0
    1.8768    1.3392    0.0000 F   0  0  0  0  0  0  0  0  0  0  0  0
    0.6128    2.3998    0.0000 F   0  0  0  0  0  0  0  0  0  0  0  0
  1  2  1  0  0  0  0
  2  3  1  0  0  0  0
  3  4  1  0  0  0  0
  4  5  1  0  0  0  0
  5  6  1  0  0  0  0
  6  7  1  0  0  0  0
  2  7  1  0  0  0  0
  2  8  1  0  0  0  0
  8  9  1  0  0  0  0
  8 10  1  0  0  0  0
  8 11  1  0  0  0  0
M  END
>  <Catalog ID>
Z838950662

>  <PlateID>
1198308-R-SPFL-03

>  <Well>
C03

>  <MW (desalted)>
170.130

>  <ClogP>
-0.439

>  <HBD>
1

>  <TPSA>
29.460

>  <RotBonds>
1

$$$$

            

 10 11  0  0  0  0            999 V2000
    3.2789    2.0625    0.0000 O   0  0  0  0  0  0  0  0  0  0  0  0
    3.2789    1.2375    0.0000 C   0  0  0  0  0  0  0  0  0  0  0  0
    3.9934    0.8250    0.0000 N   0  0  0  0  0  0  0  0  0  0  0  0
    3.9934    0.0000    0.0000 C   0  0  0  0  0  0  0  0  0  0  0  0
    3.2789   -0.4125    0.0000 C   0  0  0  0  0  0  0  0  0  0  0  0
    2.5645    0.0000    0.0000 C   0  0  0  0  0  0  0  0  0  0  0  0
    1.7798   -0.2549    0.0000 C   0  0  0  0  0  0  0  0  0  0  0  0
    1.2949    0.4125    0.0000 C   0  0  0  0  0  0  0  0  0  0  0  0
    1.7798    1.0799    0.0000 S   0  0  0  0  0  0  0  0  0  0  0  0
    2.5645    0.8250    0.0000 C   0  0  0  0  0  0  0  0  0  0  0  0
  1  2  2  0  0  0  0
  2  3  1  0  0  0  0
  3  4  1  0  0  0  0
  4  5  2  0  0  0  0
  5  6  1  0  0  0  0
  6  7  1  0  0  0  0
  7  8  2  0  0  0  0
  8  9  1  0  0  0  0
  9 10  1  0  0  0  0
  2 10  1  0  0  0  0
  6 10  2  0  0  0  0
M  END
>  <Catalog ID>
Z1216812547

>  <PlateID>
1198308-R-SPFL-03

>  <Well>
C04

>  <MW (desalted)>
151.186

>  <ClogP>
0.619

>  <HBD>
1

>  <TPSA>
29.100

>  <RotBonds>
0

$$$$

            

 15 16  0  0  0  0            999 V2000
   -0.1067    2.4134    0.0000 O   0  0  0  0  0  0  0  0  0  0  0  0
    0.6078    2.0009    0.0000 C   0  0  0  0  0  0  0  0  0  0  0  0
    0.6078    1.1759    0.0000 O   0  0  0  0  0  0  0  0  0  0  0  0
    1.3222    2.4134    0.0000 C   0  0  0  0  0  0  0  0  0  0  0  0
    1.3222    3.2384    0.0000 C   0  0  0  0  0  0  0  0  0  0  0  0
    2.0367    3.6509    0.0000 C   0  0  0  0  0  0  0  0  0  0  0  0
    2.7512    3.2384    0.0000 C   0  0  0  0  0  0  0  0  0  0  0  0
    2.7512    2.4134    0.0000 C   0  0  0  0  0  0  0  0  0  0  0  0
    3.4656    2.0009    0.0000 C   0  0  0  0  0  0  0  0  0  0  0  0
    3.4656    1.1759    0.0000 N   0  0  0  0  0  0  0  0  0  0  0  0
    4.1331    0.6910    0.0000 C   0  0  0  0  0  0  0  0  0  0  0  0
    3.8781   -0.0937    0.0000 C   0  0  0  0  0  0  0  0  0  0  0  0
    3.0531   -0.0937    0.0000 C   0  0  0  0  0  0  0  0  0  0  0  0
    2.7982    0.6910    0.0000 N   0  0  0  0  0  0  0  0  0  0  0  0
    2.0367    2.0009    0.0000 C   0  0  0  0  0  0  0  0  0  0  0  0
  1  2  1  0  0  0  0
  2  3  2  0  0  0  0
  2  4  1  0  0  0  0
  4  5  2  0  0  0  0
  5  6  1  0  0  0  0
  6  7  2  0  0  0  0
  7  8  1  0  0  0  0
  8  9  1  0  0  0  0
  9 10  1  0  0  0  0
 10 11  1  0  0  0  0
 11 12  2  0  0  0  0
 12 13  1  0  0  0  0
 13 14  2  0  0  0  0
 10 14  1  0  0  0  0
  8 15  2  0  0  0  0
  4 15  1  0  0  0  0
M  END
>  <Catalog ID>
Z316899202

>  <PlateID>
1198308-R-SPFL-03

>  <Well>
C05

>  <MW (desalted)>
202.209

>  <ClogP>
1.958

>  <HBD>
1

>  <TPSA>
55.120

>  <RotBonds>
3

$$$$

            

 16 17  0  0  0  0            999 V2000
    1.4289    0.0000    0.0000 O   0  0  0  0  0  0  0  0  0  0  0  0
    2.1434   -0.4125    0.0000 C   0  0  0  0  0  0  0  0  0  0  0  0
    2.8579    0.0000    0.0000 O   0  0  0  0  0  0  0  0  0  0  0  0
    2.1434   -1.2375    0.0000 C   0  0  0  0  0  0  0  0  0  0  0  0
    1.4289   -1.6500    0.0000 N   0  0  0  0  0  0  0  0  0  0  0  0
    1.4289   -2.4750    0.0000 C   0  0  0  0  0  0  0  0  0  0  0  0
    2.1434   -2.8875    0.0000 C   0  0  0  0  0  0  0  0  0  0  0  0
    2.8579   -2.4750    0.0000 C   0  0  0  0  0  0  0  0  0  0  0  0
    2.8579   -1.6500    0.0000 C   0  0  0  0  0  0  0  0  0  0  0  0
    3.5724   -1.2375    0.0000 O   0  0  0  0  0  0  0  0  0  0  0  0
    4.2868   -1.6500    0.0000 C   0  0  0  0  0  0  0  0  0  0  0  0
    5.0013   -1.2375    0.0000 C   0  0  0  0  0  0  0  0  0  0  0  0
    5.7158   -1.6500    0.0000 C   0  0  0  0  0  0  0  0  0  0  0  0
    5.7158   -2.4750    0.0000 C   0  0  0  0  0  0  0  0  0  0  0  0
    5.0013   -2.8875    0.0000 C   0  0  0  0  0  0  0  0  0  0  0  0
    4.2868   -2.4750    0.0000 C   0  0  0  0  0  0  0  0  0  0  0  0
  1  2  1  0  0  0  0
  2  3  2  0  0  0  0
  2  4  1  0  0  0  0
  4  5  2  0  0  0  0
  5  6  1  0  0  0  0
  6  7  2  0  0  0  0
  7  8  1  0  0  0  0
  8  9  2  0  0  0  0
  4  9  1  0  0  0  0
  9 10  1  0  0  0  0
 10 11  1  0  0  0  0
 11 12  2  0  0  0  0
 12 13  1  0  0  0  0
 13 14  2  0  0  0  0
 14 15  1  0  0  0  0
 15 16  2  0  0  0  0
 11 16  1  0  0  0  0
M  END
>  <Catalog ID>
Z1464002308

>  <PlateID>
1198308-R-SPFL-03

>  <Well>
C06

>  <MW (desalted)>
215.205

>  <ClogP>
2.667

>  <HBD>
1

>  <TPSA>
59.420

>  <RotBonds>
3

$$$$

            

 12 13  0  0  0  0            999 V2000
    0.0000   -1.6500    0.0000 C   0  0  0  0  0  0  0  0  0  0  0  0
    0.7145   -1.2375    0.0000 C   0  0  0  0  0  0  0  0  0  0  0  0
    0.7145   -0.4125    0.0000 N   0  0  0  0  0  0  0  0  0  0  0  0
    1.4289    0.0000    0.0000 C   0  0  0  0  0  0  0  0  0  0  0  0
    2.1434   -0.4125    0.0000 C   0  0  0  0  0  0  0  0  0  0  0  0
    2.8579    0.0000    0.0000 C   0  0  0  0  0  0  0  0  0  0  0  0
    3.5724   -0.4125    0.0000 C   0  0  0  0  0  0  0  0  0  0  0  0
    4.2868   -0.0000    0.0000 N   0  0  0  0  0  0  0  0  0  0  0  0
    3.5724   -1.2375    0.0000 C   0  0  0  0  0  0  0  0  0  0  0  0
    2.8579   -1.6500    0.0000 C   0  0  0  0  0  0  0  0  0  0  0  0
    2.1434   -1.2375    0.0000 C   0  0  0  0  0  0  0  0  0  0  0  0
    1.4289   -1.6500    0.0000 N   0  0  0  0  0  0  0  0  0  0  0  0
  1  2  1  0  0  0  0
  2  3  2  0  0  0  0
  3  4  1  0  0  0  0
  4  5  2  0  0  0  0
  5  6  1  0  0  0  0
  6  7  1  0  0  0  0
  7  8  1  0  0  0  0
  7  9  1  0  0  0  0
  9 10  1  0  0  0  0
 10 11  1  0  0  0  0
  5 11  1  0  0  0  0
 11 12  2  0  0  0  0
  2 12  1  0  0  0  0
M  END
>  <Catalog ID>
Z255150112

>  <PlateID>
1198308-R-SPFL-03

>  <Well>
C07

>  <MW (desalted)>
163.220

>  <ClogP>
-0.078

>  <HBD>
1

>  <TPSA>
51.800

>  <RotBonds>
0

$$$$

            

 12 11  0  0  0  0            999 V2000
    0.0000    0.0000    0.0000 Cl  0  0  0  0  0  0  0  0  0  0  0  0
    4.0472    2.1340    0.0000 N   0  0  0  0  0  0  0  0  0  0  0  0
    3.3327    1.7215    0.0000 C   0  0  0  0  0  0  0  0  0  0  0  0
    3.3327    0.8965    0.0000 C   0  0  0  0  0  0  0  0  0  0  0  0
    4.0002    0.4116    0.0000 N   0  0  0  0  0  0  0  0  0  0  0  0
    3.7452   -0.3730    0.0000 O   0  0  0  0  0  0  0  0  0  0  0  0
    2.9202   -0.3730    0.0000 C   0  0  0  0  0  0  0  0  0  0  0  0
    2.6653    0.4116    0.0000 N   0  0  0  0  0  0  0  0  0  0  0  0
    2.4353   -1.0405    0.0000 C   0  0  0  0  0  0  0  0  0  0  0  0
    1.9504   -1.7079    0.0000 F   0  0  0  0  0  0  0  0  0  0  0  0
    1.7679   -0.5555    0.0000 F   0  0  0  0  0  0  0  0  0  0  0  0
    3.1027   -1.5254    0.0000 F   0  0  0  0  0  0  0  0  0  0  0  0
  2  3  1  0  0  0  0
  3  4  1  0  0  0  0
  4  5  2  0  0  0  0
  5  6  1  0  0  0  0
  6  7  1  0  0  0  0
  7  8  2  0  0  0  0
  4  8  1  0  0  0  0
  7  9  1  0  0  0  0
  9 10  1  0  0  0  0
  9 11  1  0  0  0  0
  9 12  1  0  0  0  0
M  END
>  <Catalog ID>
Z1913661127

>  <PlateID>
1198308-R-SPFL-03

>  <Well>
C08

>  <MW (desalted)>
167.089

>  <ClogP>
-0.636

>  <HBD>
1

>  <TPSA>
64.940

>  <RotBonds>
2

$$$$

            

 13 14  0  0  0  0            999 V2000
    2.1434   -0.4125    0.0000 C   0  0  0  0  0  0  0  0  0  0  0  0
    2.1434   -1.2375    0.0000 C   0  0  0  0  0  0  0  0  0  0  0  0
    2.8579   -1.6500    0.0000 C   0  0  0  0  0  0  0  0  0  0  0  0
    2.8579   -2.4750    0.0000 C   0  0  0  0  0  0  0  0  0  0  0  0
    2.1434   -2.8875    0.0000 N   0  0  0  0  0  0  0  0  0  0  0  0
    1.4289   -2.4750    0.0000 C   0  0  0  0  0  0  0  0  0  0  0  0
    1.4289   -1.6500    0.0000 C   0  0  0  0  0  0  0  0  0  0  0  0
    2.8579    0.0000    0.0000 C   0  0  0  0  0  0  0  0  0  0  0  0
    2.8579    0.8250    0.0000 C   0  0  0  0  0  0  0  0  0  0  0  0
    3.5724    1.2375    0.0000 C   0  0  0  0  0  0  0  0  0  0  0  0
    4.2868    0.8250    0.0000 C   0  0  0  0  0  0  0  0  0  0  0  0
    4.2868    0.0000    0.0000 C   0  0  0  0  0  0  0  0  0  0  0  0
    3.5724   -0.4125    0.0000 N   0  0  0  0  0  0  0  0  0  0  0  0
  1  2  1  0  0  0  0
  2  3  1  0  0  0  0
  3  4  1  0  0  0  0
  4  5  1  0  0  0  0
  5  6  1  0  0  0  0
  6  7  1  0  0  0  0
  2  7  1  0  0  0  0
  1  8  1  0  0  0  0
  8  9  2  0  0  0  0
  9 10  1  0  0  0  0
 10 11  2  0  0  0  0
 11 12  1  0  0  0  0
 12 13  2  0  0  0  0
  8 13  1  0  0  0  0
M  END
>  <Catalog ID>
Z295462532

>  <PlateID>
1198308-R-SPFL-03

>  <Well>
C09

>  <MW (desalted)>
176.258

>  <ClogP>
1.375

>  <HBD>
1

>  <TPSA>
24.920

>  <RotBonds>
2

$$$$

            

 15 16  0  0  0  0            999 V2000
    1.3222   -0.0616    0.0000 O   0  0  0  0  0  0  0  0  0  0  0  0
    2.0367   -0.4741    0.0000 C   0  0  0  0  0  0  0  0  0  0  0  0
    2.0367   -1.2991    0.0000 C   0  0  0  0  0  0  0  0  0  0  0  0
    2.7041   -1.7840    0.0000 N   0  0  0  0  0  0  0  0  0  0  0  0
    2.4492   -2.5687    0.0000 C   0  0  0  0  0  0  0  0  0  0  0  0
    2.9341   -3.2361    0.0000 C   0  0  0  0  0  0  0  0  0  0  0  0
    2.5986   -3.9898    0.0000 C   0  0  0  0  0  0  0  0  0  0  0  0
    3.0835   -4.6572    0.0000 C   0  0  0  0  0  0  0  0  0  0  0  0
    2.7479   -5.4109    0.0000 C   0  0  0  0  0  0  0  0  0  0  0  0
    1.9275   -5.4971    0.0000 C   0  0  0  0  0  0  0  0  0  0  0  0
    1.5919   -6.2508    0.0000 F   0  0  0  0  0  0  0  0  0  0  0  0
    1.4425   -4.8297    0.0000 C   0  0  0  0  0  0  0  0  0  0  0  0
    1.7781   -4.0760    0.0000 C   0  0  0  0  0  0  0  0  0  0  0  0
    1.6242   -2.5687    0.0000 N   0  0  0  0  0  0  0  0  0  0  0  0
    1.3693   -1.7840    0.0000 O   0  0  0  0  0  0  0  0  0  0  0  0
  1  2  1  0  0  0  0
  2  3  1  0  0  0  0
  3  4  2  0  0  0  0
  4  5  1  0  0  0  0
  5  6  1  0  0  0  0
  6  7  1  0  0  0  0
  7  8  2  0  0  0  0
  8  9  1  0  0  0  0
  9 10  2  0  0  0  0
 10 11  1  0  0  0  0
 10 12  1  0  0  0  0
 12 13  2  0  0  0  0
  7 13  1  0  0  0  0
  5 14  2  0  0  0  0
 14 15  1  0  0  0  0
  3 15  1  0  0  0  0
M  END
>  <Catalog ID>
Z1154602939

>  <PlateID>
1198308-R-SPFL-03

>  <Well>
C10

>  <MW (desalted)>
208.189

>  <ClogP>
0.436

>  <HBD>
1

>  <TPSA>
59.150

>  <RotBonds>
3

$$$$

            

 11 10  0  0  0  0            999 V2000
    0.0000    0.0000    0.0000 Cl  0  0  0  0  0  0  0  0  0  0  0  0
    3.0716    1.7325    0.0000 F   0  0  0  0  0  0  0  0  0  0  0  0
    3.0716    0.9075    0.0000 C   0  0  0  0  0  0  0  0  0  0  0  0
    2.2466    0.9075    0.0000 F   0  0  0  0  0  0  0  0  0  0  0  0
    3.8966    0.9075    0.0000 F   0  0  0  0  0  0  0  0  0  0  0  0
    3.0716    0.0825    0.0000 C   0  0  0  0  0  0  0  0  0  0  0  0
    3.7861   -0.3300    0.0000 C   0  0  0  0  0  0  0  0  0  0  0  0
    3.7861   -1.1550    0.0000 N   0  0  0  0  0  0  0  0  0  0  0  0
    3.0716   -1.5675    0.0000 C   0  0  0  0  0  0  0  0  0  0  0  0
    2.3571   -1.1550    0.0000 C   0  0  0  0  0  0  0  0  0  0  0  0
    2.3571   -0.3300    0.0000 O   0  0  0  0  0  0  0  0  0  0  0  0
  2  3  1  0  0  0  0
  3  4  1  0  0  0  0
  3  5  1  0  0  0  0
  3  6  1  0  0  0  0
  6  7  1  0  0  0  0
  7  8  1  0  0  0  0
  8  9  1  0  0  0  0
  9 10  1  0  0  0  0
 10 11  1  0  0  0  0
  6 11  1  0  0  0  0
M  END
>  <Catalog ID>
Z1250100759

>  <PlateID>
1198308-R-SPFL-03

>  <Well>
C11

>  <MW (desalted)>
155.118

>  <ClogP>
0.635

>  <HBD>
1

>  <TPSA>
21.260

>  <RotBonds>
1

$$$$

            

 14 15  0  0  0  0            999 V2000
    2.1434   -0.4125    0.0000 O   0  0  0  0  0  0  0  0  0  0  0  0
    2.1434   -1.2375    0.0000 C   0  0  0  0  0  0  0  0  0  0  0  0
    2.8579   -1.6500    0.0000 N   0  0  0  0  0  0  0  0  0  0  0  0
    2.8579   -2.4750    0.0000 C   0  0  0  0  0  0  0  0  0  0  0  0
    2.1434   -2.8875    0.0000 C   0  0  0  0  0  0  0  0  0  0  0  0
    1.4289   -2.4750    0.0000 C   0  0  0  0  0  0  0  0  0  0  0  0
    1.4289   -1.6500    0.0000 N   0  0  0  0  0  0  0  0  0  0  0  0
    0.7145   -1.2375    0.0000 C   0  0  0  0  0  0  0  0  0  0  0  0
    0.7145   -0.4125    0.0000 C   0  0  0  0  0  0  0  0  0  0  0  0
    0.0000    0.0000    0.0000 C   0  0  0  0  0  0  0  0  0  0  0  0
    0.0000    0.8250    0.0000 C   0  0  0  0  0  0  0  0  0  0  0  0
    0.7145    1.2375    0.0000 C   0  0  0  0  0  0  0  0  0  0  0  0
    1.4289    0.8250    0.0000 C   0  0  0  0  0  0  0  0  0  0  0  0
    1.4289    0.0000    0.0000 C   0  0  0  0  0  0  0  0  0  0  0  0
  1  2  2  0  0  0  0
  2  3  1  0  0  0  0
  3  4  1  0  0  0  0
  4  5  1  0  0  0  0
  5  6  1  0  0  0  0
  6  7  1  0  0  0  0
  2  7  1  0  0  0  0
  7  8  1  0  0  0  0
  8  9  1  0  0  0  0
  9 10  2  0  0  0  0
 10 11  1  0  0  0  0
 11 12  2  0  0  0  0
 12 13  1  0  0  0  0
 13 14  2  0  0  0  0
  9 14  1  0  0  0  0
M  END
>  <Catalog ID>
Z1255447124

>  <PlateID>
1198308-R-SPFL-03

>  <Well>
D02

>  <MW (desalted)>
190.242

>  <ClogP>
1.431

>  <HBD>
1

>  <TPSA>
32.340

>  <RotBonds>
2

$$$$

            

 10 10  0  0  0  0            999 V2000
    0.0000    2.4750    0.0000 C   0  0  0  0  0  0  0  0  0  0  0  0
    0.7145    2.0625    0.0000 C   0  0  0  0  0  0  0  0  0  0  0  0
    1.4289    2.4750    0.0000 C   0  0  0  0  0  0  0  0  0  0  0  0
    0.7145    1.2375    0.0000 C   0  0  0  0  0  0  0  0  0  0  0  0
    1.4289    0.8250    0.0000 C   0  0  0  0  0  0  0  0  0  0  0  0
    1.4289   -0.0000    0.0000 O   0  0  0  0  0  0  0  0  0  0  0  0
    0.7145   -0.4125    0.0000 C   0  0  0  0  0  0  0  0  0  0  0  0
    0.0000    0.0000    0.0000 C   0  0  0  0  0  0  0  0  0  0  0  0
   -0.7145   -0.4125    0.0000 O   0  0  0  0  0  0  0  0  0  0  0  0
    0.0000    0.8250    0.0000 N   0  0  0  0  0  0  0  0  0  0  0  0
  1  2  1  0  0  0  0
  2  3  1  0  0  0  0
  2  4  1  0  0  0  0
  4  5  1  0  0  0  0
  5  6  1  0  0  0  0
  6  7  1  0  0  0  0
  7  8  1  0  0  0  0
  8  9  2  0  0  0  0
  8 10  1  0  0  0  0
  4 10  1  0  0  0  0
M  END
>  <Catalog ID>
Z1203831510

>  <PlateID>
1198308-R-SPFL-03

>  <Well>
D03

>  <MW (desalted)>
143.184

>  <ClogP>
0.660

>  <HBD>
1

>  <TPSA>
38.330

>  <RotBonds>
1

$$$$

            

 10 10  0  0  0  0            999 V2000
    0.5678    1.9393    0.0000 C   0  0  0  0  0  0  0  0  0  0  0  0
    0.5678    1.1143    0.0000 N   0  0  0  0  0  0  0  0  0  0  0  0
    1.2352    0.6294    0.0000 C   0  0  0  0  0  0  0  0  0  0  0  0
    0.9803   -0.1553    0.0000 C   0  0  0  0  0  0  0  0  0  0  0  0
    0.1553   -0.1553    0.0000 C   0  0  0  0  0  0  0  0  0  0  0  0
   -0.0997    0.6294    0.0000 N   0  0  0  0  0  0  0  0  0  0  0  0
    1.4652   -0.8227    0.0000 C   0  0  0  0  0  0  0  0  0  0  0  0
    1.9501   -1.4901    0.0000 F   0  0  0  0  0  0  0  0  0  0  0  0
    0.7977   -1.3076    0.0000 F   0  0  0  0  0  0  0  0  0  0  0  0
    2.1326   -0.3378    0.0000 F   0  0  0  0  0  0  0  0  0  0  0  0
  1  2  1  0  0  0  0
  2  3  1  0  0  0  0
  3  4  2  0  0  0  0
  4  5  1  0  0  0  0
  5  6  2  0  0  0  0
  2  6  1  0  0  0  0
  4  7  1  0  0  0  0
  7  8  1  0  0  0  0
  7  9  1  0  0  0  0
  7 10  1  0  0  0  0
M  END
>  <Catalog ID>
Z1255452606

>  <PlateID>
1198308-R-SPFL-03

>  <Well>
D04

>  <MW (desalted)>
150.102

>  <ClogP>
1.302

>  <HBD>
0

>  <TPSA>
17.820

>  <RotBonds>
1

$$$$

            

 10 10  0  0  0  0            999 V2000
   -0.8612    3.5893    0.0000 O   0  0  0  0  0  0  0  0  0  0  0  0
   -0.1467    3.1768    0.0000 C   0  0  0  0  0  0  0  0  0  0  0  0
    0.5678    3.5893    0.0000 O   0  0  0  0  0  0  0  0  0  0  0  0
   -0.1467    2.3518    0.0000 C   0  0  0  0  0  0  0  0  0  0  0  0
    0.5678    1.9393    0.0000 O   0  0  0  0  0  0  0  0  0  0  0  0
    0.5678    1.1143    0.0000 C   0  0  0  0  0  0  0  0  0  0  0  0
    1.2352    0.6294    0.0000 C   0  0  0  0  0  0  0  0  0  0  0  0
    0.9803   -0.1553    0.0000 C   0  0  0  0  0  0  0  0  0  0  0  0
    0.1553   -0.1553    0.0000 S   0  0  0  0  0  0  0  0  0  0  0  0
   -0.0997    0.6294    0.0000 C   0  0  0  0  0  0  0  0  0  0  0  0
  1  2  1  0  0  0  0
  2  3  2  0  0  0  0
  2  4  1  0  0  0  0
  4  5  1  0  0  0  0
  5  6  1  0  0  0  0
  6  7  1  0  0  0  0
  7  8  2  0  0  0  0
  8  9  1  0  0  0  0
  9 10  1  0  0  0  0
  6 10  2  0  0  0  0
M  END
>  <Catalog ID>
Z1262541445

>  <PlateID>
1198308-R-SPFL-03

>  <Well>
D05

>  <MW (desalted)>
158.175

>  <ClogP>
1.121

>  <HBD>
1

>  <TPSA>
46.530

>  <RotBonds>
3

$$$$

            

 14 13  0  0  0  0            999 V2000
    0.0000    0.0000    0.0000 Cl  0  0  0  0  0  0  0  0  0  0  0  0
    4.6257    2.6654    0.0000 N   0  0  0  0  0  0  0  0  0  0  0  0
    4.6257    1.8404    0.0000 C   0  0  0  0  0  0  0  0  0  0  0  0
    3.9113    1.4279    0.0000 C   0  0  0  0  0  0  0  0  0  0  0  0
    3.9113    0.6029    0.0000 C   0  0  0  0  0  0  0  0  0  0  0  0
    4.6257    0.1904    0.0000 C   0  0  0  0  0  0  0  0  0  0  0  0
    4.6257   -0.6346    0.0000 C   0  0  0  0  0  0  0  0  0  0  0  0
    3.9113   -1.0471    0.0000 C   0  0  0  0  0  0  0  0  0  0  0  0
    3.1968   -0.6346    0.0000 C   0  0  0  0  0  0  0  0  0  0  0  0
    3.1968    0.1904    0.0000 N   0  0  0  0  0  0  0  0  0  0  0  0
    2.4823   -1.0471    0.0000 C   0  0  0  0  0  0  0  0  0  0  0  0
    1.7679   -1.4596    0.0000 F   0  0  0  0  0  0  0  0  0  0  0  0
    2.0698   -0.3326    0.0000 F   0  0  0  0  0  0  0  0  0  0  0  0
    2.8948   -1.7616    0.0000 F   0  0  0  0  0  0  0  0  0  0  0  0
  2  3  1  0  0  0  0
  3  4  1  0  0  0  0
  4  5  1  0  0  0  0
  5  6  2  0  0  0  0
  6  7  1  0  0  0  0
  7  8  2  0  0  0  0
  8  9  1  0  0  0  0
  9 10  2  0  0  0  0
  5 10  1  0  0  0  0
  9 11  1  0  0  0  0
 11 12  1  0  0  0  0
 11 13  1  0  0  0  0
 11 14  1  0  0  0  0
M  END
>  <Catalog ID>
Z2517097706

>  <PlateID>
1198308-R-SPFL-03

>  <Well>
D06

>  <MW (desalted)>
190.166

>  <ClogP>
0.966

>  <HBD>
1

>  <TPSA>
38.910

>  <RotBonds>
3

$$$$

            

 15 16  0  0  0  0            999 V2000
   -0.7145   -3.7125    0.0000 O   0  0  0  0  0  0  0  0  0  0  0  0
   -0.7145   -2.8875    0.0000 C   0  0  0  0  0  0  0  0  0  0  0  0
   -1.4289   -2.4750    0.0000 O   0  0  0  0  0  0  0  0  0  0  0  0
    0.0000   -2.4750    0.0000 C   0  0  0  0  0  0  0  0  0  0  0  0
    0.0000   -1.6500    0.0000 C   0  0  0  0  0  0  0  0  0  0  0  0
    0.7145   -1.2375    0.0000 C   0  0  0  0  0  0  0  0  0  0  0  0
    0.7145   -0.4125    0.0000 C   0  0  0  0  0  0  0  0  0  0  0  0
    1.4289    0.0000    0.0000 C   0  0  0  0  0  0  0  0  0  0  0  0
    2.1434   -0.4125    0.0000 C   0  0  0  0  0  0  0  0  0  0  0  0
    2.8579    0.0000    0.0000 C   0  0  0  0  0  0  0  0  0  0  0  0
    3.5724   -0.4125    0.0000 C   0  0  0  0  0  0  0  0  0  0  0  0
    3.5724   -1.2375    0.0000 C   0  0  0  0  0  0  0  0  0  0  0  0
    2.8579   -1.6500    0.0000 C   0  0  0  0  0  0  0  0  0  0  0  0
    2.1434   -1.2375    0.0000 C   0  0  0  0  0  0  0  0  0  0  0  0
    1.4289   -1.6500    0.0000 N   0  0  0  0  0  0  0  0  0  0  0  0
  1  2  1  0  0  0  0
  2  3  2  0  0  0  0
  2  4  1  0  0  0  0
  4  5  1  0  0  0  0
  5  6  1  0  0  0  0
  6  7  1  0  0  0  0
  7  8  2  0  0  0  0
  8  9  1  0  0  0  0
  9 10  2  0  0  0  0
 10 11  1  0  0  0  0
 11 12  2  0  0  0  0
 12 13  1  0  0  0  0
 13 14  2  0  0  0  0
  9 14  1  0  0  0  0
 14 15  1  0  0  0  0
  6 15  2  0  0  0  0
M  END
>  <Catalog ID>
Z85922627

>  <PlateID>
1198308-R-SPFL-03

>  <Well>
D07

>  <MW (desalted)>
201.221

>  <ClogP>
1.790

>  <HBD>
1

>  <TPSA>
50.190

>  <RotBonds>
3

$$$$

            

 11 11  0  0  0  0            999 V2000
    0.7145    2.0625    0.0000 N   0  0  0  0  0  0  0  0  0  0  0  0
    0.7145    1.2375    0.0000 C   0  0  0  0  0  0  0  0  0  0  0  0
    1.4289    0.8250    0.0000 N   0  0  0  0  0  0  0  0  0  0  0  0
    1.4289   -0.0000    0.0000 C   0  0  0  0  0  0  0  0  0  0  0  0
    0.7145   -0.4125    0.0000 C   0  0  0  0  0  0  0  0  0  0  0  0
    0.0000    0.0000    0.0000 C   0  0  0  0  0  0  0  0  0  0  0  0
    0.0000    0.8250    0.0000 N   0  0  0  0  0  0  0  0  0  0  0  0
   -0.7145   -0.4125    0.0000 C   0  0  0  0  0  0  0  0  0  0  0  0
   -1.4289   -0.8250    0.0000 F   0  0  0  0  0  0  0  0  0  0  0  0
   -1.1270    0.3020    0.0000 F   0  0  0  0  0  0  0  0  0  0  0  0
   -0.3020   -1.1270    0.0000 F   0  0  0  0  0  0  0  0  0  0  0  0
  1  2  1  0  0  0  0
  2  3  2  0  0  0  0
  3  4  1  0  0  0  0
  4  5  2  0  0  0  0
  5  6  1  0  0  0  0
  6  7  2  0  0  0  0
  2  7  1  0  0  0  0
  6  8  1  0  0  0  0
  8  9  1  0  0  0  0
  8 10  1  0  0  0  0
  8 11  1  0  0  0  0
M  END
>  <Catalog ID>
Z970455788

>  <PlateID>
1198308-R-SPFL-03

>  <Well>
D08

>  <MW (desalted)>
163.101

>  <ClogP>
0.639

>  <HBD>
1

>  <TPSA>
51.800

>  <RotBonds>
1

$$$$

            

 11 11  0  0  0  0            999 V2000
    0.7145    2.8875    0.0000 F   0  0  0  0  0  0  0  0  0  0  0  0
    0.7145    2.0625    0.0000 C   0  0  0  0  0  0  0  0  0  0  0  0
   -0.1105    2.0625    0.0000 F   0  0  0  0  0  0  0  0  0  0  0  0
    1.5395    2.0625    0.0000 F   0  0  0  0  0  0  0  0  0  0  0  0
    0.7145    1.2375    0.0000 C   0  0  0  0  0  0  0  0  0  0  0  0
    1.4289    0.8250    0.0000 C   0  0  0  0  0  0  0  0  0  0  0  0
    1.4289   -0.0000    0.0000 N   0  0  0  0  0  0  0  0  0  0  0  0
    0.7145   -0.4125    0.0000 N   0  0  0  0  0  0  0  0  0  0  0  0
    0.0000    0.0000    0.0000 C   0  0  0  0  0  0  0  0  0  0  0  0
   -0.7145   -0.4125    0.0000 O   0  0  0  0  0  0  0  0  0  0  0  0
    0.0000    0.8250    0.0000 C   0  0  0  0  0  0  0  0  0  0  0  0
  1  2  1  0  0  0  0
  2  3  1  0  0  0  0
  2  4  1  0  0  0  0
  2  5  1  0  0  0  0
  5  6  1  0  0  0  0
  6  7  2  0  0  0  0
  7  8  1  0  0  0  0
  8  9  1  0  0  0  0
  9 10  2  0  0  0  0
  9 11  1  0  0  0  0
  5 11  2  0  0  0  0
M  END
>  <Catalog ID>
Z1198234445

>  <PlateID>
1198308-R-SPFL-03

>  <Well>
D09

>  <MW (desalted)>
164.085

>  <ClogP>
-0.346

>  <HBD>
1

>  <TPSA>
41.460

>  <RotBonds>
1

$$$$

            

 12 13  0  0  0  0            999 V2000
    0.7145   -0.4125    0.0000 O   0  0  0  0  0  0  0  0  0  0  0  0
    0.7145   -1.2375    0.0000 C   0  0  0  0  0  0  0  0  0  0  0  0
    1.3819   -1.7224    0.0000 N   0  0  0  0  0  0  0  0  0  0  0  0
    1.1270   -2.5070    0.0000 C   0  0  0  0  0  0  0  0  0  0  0  0
    0.3020   -2.5070    0.0000 C   0  0  0  0  0  0  0  0  0  0  0  0
    0.0470   -1.7224    0.0000 C   0  0  0  0  0  0  0  0  0  0  0  0
   -0.7376   -1.4675    0.0000 C   0  0  0  0  0  0  0  0  0  0  0  0
   -1.3507   -2.0195    0.0000 C   0  0  0  0  0  0  0  0  0  0  0  0
   -2.1353   -1.7646    0.0000 C   0  0  0  0  0  0  0  0  0  0  0  0
   -2.3068   -0.9576    0.0000 C   0  0  0  0  0  0  0  0  0  0  0  0
   -1.6937   -0.4056    0.0000 C   0  0  0  0  0  0  0  0  0  0  0  0
   -0.9091   -0.6605    0.0000 C   0  0  0  0  0  0  0  0  0  0  0  0
  1  2  2  0  0  0  0
  2  3  1  0  0  0  0
  3  4  1  0  0  0  0
  4  5  1  0  0  0  0
  5  6  1  0  0  0  0
  2  6  1  0  0  0  0
  6  7  1  0  0  0  0
  7  8  1  0  0  0  0
  8  9  1  0  0  0  0
  9 10  1  0  0  0  0
 10 11  1  0  0  0  0
 11 12  1  0  0  0  0
  7 12  1  0  0  0  0
M  END
>  <Catalog ID>
Z1509320575

>  <PlateID>
1198308-R-SPFL-03

>  <Well>
D10

>  <MW (desalted)>
167.248

>  <ClogP>
1.577

>  <HBD>
1

>  <TPSA>
29.100

>  <RotBonds>
1

$$$$

            

 12 12  0  0  0  0            999 V2000
    0.7145    2.0625    0.0000 C   0  0  0  0  0  0  0  0  0  0  0  0
    0.7145    1.2375    0.0000 C   0  0  0  0  0  0  0  0  0  0  0  0
    1.4289    0.8250    0.0000 C   0  0  0  0  0  0  0  0  0  0  0  0
    1.4289   -0.0000    0.0000 C   0  0  0  0  0  0  0  0  0  0  0  0
    0.7145   -0.4125    0.0000 C   0  0  0  0  0  0  0  0  0  0  0  0
    0.0000    0.0000    0.0000 C   0  0  0  0  0  0  0  0  0  0  0  0
   -0.7145   -0.4125    0.0000 O   0  0  0  0  0  0  0  0  0  0  0  0
   -0.7145   -1.2375    0.0000 C   0  0  0  0  0  0  0  0  0  0  0  0
   -1.4289   -1.6500    0.0000 C   0  0  0  0  0  0  0  0  0  0  0  0
   -1.4289   -2.4750    0.0000 O   0  0  0  0  0  0  0  0  0  0  0  0
   -2.1434   -1.2375    0.0000 N   0  0  0  0  0  0  0  0  0  0  0  0
    0.0000    0.8250    0.0000 C   0  0  0  0  0  0  0  0  0  0  0  0
  1  2  1  0  0  0  0
  2  3  2  0  0  0  0
  3  4  1  0  0  0  0
  4  5  2  0  0  0  0
  5  6  1  0  0  0  0
  6  7  1  0  0  0  0
  7  8  1  0  0  0  0
  8  9  1  0  0  0  0
  9 10  2  0  0  0  0
  9 11  1  0  0  0  0
  6 12  2  0  0  0  0
  2 12  1  0  0  0  0
M  END
>  <Catalog ID>
Z19732960

>  <PlateID>
1198308-R-SPFL-03

>  <Well>
D11

>  <MW (desalted)>
165.189

>  <ClogP>
1.055

>  <HBD>
1

>  <TPSA>
52.320

>  <RotBonds>
3

$$$$

            

 12 12  0  0  0  0            999 V2000
    0.0000    3.3000    0.0000 C   0  0  0  0  0  0  0  0  0  0  0  0
    0.0000    2.4750    0.0000 C   0  0  0  0  0  0  0  0  0  0  0  0
   -0.7145    2.0625    0.0000 C   0  0  0  0  0  0  0  0  0  0  0  0
    0.7145    2.0625    0.0000 O   0  0  0  0  0  0  0  0  0  0  0  0
    0.7145    1.2375    0.0000 C   0  0  0  0  0  0  0  0  0  0  0  0
    1.4289    0.8250    0.0000 C   0  0  0  0  0  0  0  0  0  0  0  0
    1.4289   -0.0000    0.0000 C   0  0  0  0  0  0  0  0  0  0  0  0
    2.1434   -0.4125    0.0000 C   0  0  0  0  0  0  0  0  0  0  0  0
    2.8579   -0.0000    0.0000 O   0  0  0  0  0  0  0  0  0  0  0  0
    0.7145   -0.4125    0.0000 C   0  0  0  0  0  0  0  0  0  0  0  0
    0.0000    0.0000    0.0000 C   0  0  0  0  0  0  0  0  0  0  0  0
    0.0000    0.8250    0.0000 N   0  0  0  0  0  0  0  0  0  0  0  0
  1  2  1  0  0  0  0
  2  3  1  0  0  0  0
  2  4  1  0  0  0  0
  4  5  1  0  0  0  0
  5  6  2  0  0  0  0
  6  7  1  0  0  0  0
  7  8  1  0  0  0  0
  8  9  1  0  0  0  0
  7 10  2  0  0  0  0
 10 11  1  0  0  0  0
 11 12  2  0  0  0  0
  5 12  1  0  0  0  0
M  END
>  <Catalog ID>
Z800298454

>  <PlateID>
1198308-R-SPFL-03

>  <Well>
E02

>  <MW (desalted)>
167.205

>  <ClogP>
1.715

>  <HBD>
1

>  <TPSA>
42.350

>  <RotBonds>
3

$$$$

            

 10 10  0  0  0  0            999 V2000
    0.0000    2.4750    0.0000 F   0  0  0  0  0  0  0  0  0  0  0  0
    0.7145    2.0625    0.0000 C   0  0  0  0  0  0  0  0  0  0  0  0
    1.4289    2.4750    0.0000 F   0  0  0  0  0  0  0  0  0  0  0  0
    0.7145    1.2375    0.0000 N   0  0  0  0  0  0  0  0  0  0  0  0
    1.4289    0.8250    0.0000 C   0  0  0  0  0  0  0  0  0  0  0  0
    1.4289   -0.0000    0.0000 C   0  0  0  0  0  0  0  0  0  0  0  0
    0.7145   -0.4125    0.0000 C   0  0  0  0  0  0  0  0  0  0  0  0
    0.0000    0.0000    0.0000 C   0  0  0  0  0  0  0  0  0  0  0  0
    0.0000    0.8250    0.0000 C   0  0  0  0  0  0  0  0  0  0  0  0
   -0.7145    1.2375    0.0000 O   0  0  0  0  0  0  0  0  0  0  0  0
  1  2  1  0  0  0  0
  2  3  1  0  0  0  0
  2  4  1  0  0  0  0
  4  5  1  0  0  0  0
  5  6  2  0  0  0  0
  6  7  1  0  0  0  0
  7  8  2  0  0  0  0
  8  9  1  0  0  0  0
  4  9  1  0  0  0  0
  9 10  2  0  0  0  0
M  END
>  <Catalog ID>
Z1255418570

>  <PlateID>
1198308-R-SPFL-03

>  <Well>
E03

>  <MW (desalted)>
145.107

>  <ClogP>
0.210

>  <HBD>
0

>  <TPSA>
20.310

>  <RotBonds>
1

$$$$

            

 12 13  0  0  0  0            999 V2000
   -0.1105   -1.0164    0.0000 N   0  0  0  0  0  0  0  0  0  0  0  0
    0.3020   -0.3020    0.0000 C   0  0  0  0  0  0  0  0  0  0  0  0
   -0.1105    0.4125    0.0000 C   0  0  0  0  0  0  0  0  0  0  0  0
    0.3020    1.1270    0.0000 C   0  0  0  0  0  0  0  0  0  0  0  0
    1.1270    1.1270    0.0000 O   0  0  0  0  0  0  0  0  0  0  0  0
    1.5395    0.4125    0.0000 C   0  0  0  0  0  0  0  0  0  0  0  0
    1.9520    1.1270    0.0000 C   0  0  0  0  0  0  0  0  0  0  0  0
    2.7770    1.1270    0.0000 C   0  0  0  0  0  0  0  0  0  0  0  0
    3.1895    0.4125    0.0000 C   0  0  0  0  0  0  0  0  0  0  0  0
    2.7770   -0.3020    0.0000 C   0  0  0  0  0  0  0  0  0  0  0  0
    1.9520   -0.3020    0.0000 C   0  0  0  0  0  0  0  0  0  0  0  0
    1.1270   -0.3020    0.0000 C   0  0  0  0  0  0  0  0  0  0  0  0
  1  2  1  0  0  0  0
  2  3  1  0  0  0  0
  3  4  1  0  0  0  0
  4  5  1  0  0  0  0
  5  6  1  0  0  0  0
  6  7  1  0  0  0  0
  7  8  1  0  0  0  0
  8  9  1  0  0  0  0
  9 10  1  0  0  0  0
 10 11  1  0  0  0  0
  6 11  1  0  0  0  0
  6 12  1  0  0  0  0
  2 12  1  0  0  0  0
M  END
>  <Catalog ID>
Z1192342360

>  <PlateID>
1198308-R-SPFL-03

>  <Well>
E04

>  <MW (desalted)>
169.264

>  <ClogP>
0.959

>  <HBD>
1

>  <TPSA>
35.250

>  <RotBonds>
0

$$$$

            

 11 12  0  0  0  0            999 V2000
    2.0367    4.3527    0.0000 C   0  0  0  0  0  0  0  0  0  0  0  0
    2.7512    4.7652    0.0000 C   0  0  0  0  0  0  0  0  0  0  0  0
    3.4656    4.3527    0.0000 N   0  0  0  0  0  0  0  0  0  0  0  0
    3.4656    3.5277    0.0000 C   0  0  0  0  0  0  0  0  0  0  0  0
    2.7512    3.1152    0.0000 C   0  0  0  0  0  0  0  0  0  0  0  0
    2.0367    3.5277    0.0000 C   0  0  0  0  0  0  0  0  0  0  0  0
    2.7512    2.2902    0.0000 C   0  0  0  0  0  0  0  0  0  0  0  0
    3.4186    1.8053    0.0000 N   0  0  0  0  0  0  0  0  0  0  0  0
    3.1637    1.0206    0.0000 C   0  0  0  0  0  0  0  0  0  0  0  0
    2.3387    1.0206    0.0000 C   0  0  0  0  0  0  0  0  0  0  0  0
    2.0837    1.8053    0.0000 S   0  0  0  0  0  0  0  0  0  0  0  0
  1  2  1  0  0  0  0
  2  3  1  0  0  0  0
  3  4  1  0  0  0  0
  4  5  1  0  0  0  0
  5  6  1  0  0  0  0
  1  6  1  0  0  0  0
  5  7  1  0  0  0  0
  7  8  2  0  0  0  0
  8  9  1  0  0  0  0
  9 10  2  0  0  0  0
 10 11  1  0  0  0  0
  7 11  1  0  0  0  0
M  END
>  <Catalog ID>
Z979729660

>  <PlateID>
1198308-R-SPFL-03

>  <Well>
E05

>  <MW (desalted)>
168.259

>  <ClogP>
0.837

>  <HBD>
1

>  <TPSA>
24.920

>  <RotBonds>
1

$$$$

            

 11 12  0  0  0  0            999 V2000
   -0.6078    4.3527    0.0000 C   0  0  0  0  0  0  0  0  0  0  0  0
   -0.6078    3.5277    0.0000 C   0  0  0  0  0  0  0  0  0  0  0  0
   -1.3222    3.1152    0.0000 C   0  0  0  0  0  0  0  0  0  0  0  0
   -2.0367    3.5277    0.0000 C   0  0  0  0  0  0  0  0  0  0  0  0
   -2.0367    4.3527    0.0000 C   0  0  0  0  0  0  0  0  0  0  0  0
   -1.3222    4.7652    0.0000 N   0  0  0  0  0  0  0  0  0  0  0  0
   -1.3222    2.2902    0.0000 C   0  0  0  0  0  0  0  0  0  0  0  0
   -0.6548    1.8053    0.0000 C   0  0  0  0  0  0  0  0  0  0  0  0
   -0.9097    1.0206    0.0000 S   0  0  0  0  0  0  0  0  0  0  0  0
   -1.7347    1.0206    0.0000 C   0  0  0  0  0  0  0  0  0  0  0  0
   -1.9897    1.8053    0.0000 N   0  0  0  0  0  0  0  0  0  0  0  0
  1  2  1  0  0  0  0
  2  3  1  0  0  0  0
  3  4  1  0  0  0  0
  4  5  1  0  0  0  0
  5  6  1  0  0  0  0
  1  6  1  0  0  0  0
  3  7  1  0  0  0  0
  7  8  2  0  0  0  0
  8  9  1  0  0  0  0
  9 10  1  0  0  0  0
 10 11  2  0  0  0  0
  7 11  1  0  0  0  0
M  END
>  <Catalog ID>
Z1255428434

>  <PlateID>
1198308-R-SPFL-03

>  <Well>
E06

>  <MW (desalted)>
168.259

>  <ClogP>
0.687

>  <HBD>
1

>  <TPSA>
24.920

>  <RotBonds>
1

$$$$

            

 15 16  0  0  0  0            999 V2000
    2.7512   -0.0616    0.0000 O   0  0  0  0  0  0  0  0  0  0  0  0
    2.0367   -0.4741    0.0000 C   0  0  0  0  0  0  0  0  0  0  0  0
    2.0367   -1.2991    0.0000 C   0  0  0  0  0  0  0  0  0  0  0  0
    2.7041   -1.7840    0.0000 C   0  0  0  0  0  0  0  0  0  0  0  0
    2.4492   -2.5687    0.0000 C   0  0  0  0  0  0  0  0  0  0  0  0
    1.6242   -2.5687    0.0000 C   0  0  0  0  0  0  0  0  0  0  0  0
    1.3693   -1.7840    0.0000 N   0  0  0  0  0  0  0  0  0  0  0  0
    0.5846   -1.5291    0.0000 C   0  0  0  0  0  0  0  0  0  0  0  0
    0.4131   -0.7221    0.0000 C   0  0  0  0  0  0  0  0  0  0  0  0
   -0.3715   -0.4672    0.0000 C   0  0  0  0  0  0  0  0  0  0  0  0
   -0.5430    0.3398    0.0000 C   0  0  0  0  0  0  0  0  0  0  0  0
    0.0701    0.8918    0.0000 C   0  0  0  0  0  0  0  0  0  0  0  0
   -0.1015    1.6988    0.0000 F   0  0  0  0  0  0  0  0  0  0  0  0
    0.8547    0.6369    0.0000 C   0  0  0  0  0  0  0  0  0  0  0  0
    1.0262   -0.1701    0.0000 C   0  0  0  0  0  0  0  0  0  0  0  0
  1  2  1  0  0  0  0
  2  3  1  0  0  0  0
  3  4  1  0  0  0  0
  4  5  1  0  0  0  0
  5  6  1  0  0  0  0
  6  7  1  0  0  0  0
  3  7  1  0  0  0  0
  7  8  1  0  0  0  0
  8  9  1  0  0  0  0
  9 10  2  0  0  0  0
 10 11  1  0  0  0  0
 11 12  2  0  0  0  0
 12 13  1  0  0  0  0
 12 14  1  0  0  0  0
 14 15  2  0  0  0  0
  9 15  1  0  0  0  0
M  END
>  <Catalog ID>
Z56346993

>  <PlateID>
1198308-R-SPFL-03

>  <Well>
E07

>  <MW (desalted)>
209.260

>  <ClogP>
2.118

>  <HBD>
1

>  <TPSA>
23.470

>  <RotBonds>
3

$$$$

            

 11 12  0  0  0  0            999 V2000
    3.7279    1.9441    0.0000 C   0  0  0  0  0  0  0  0  0  0  0  0
    3.3700    1.2008    0.0000 C   0  0  0  0  0  0  0  0  0  0  0  0
    2.5656    1.0173    0.0000 O   0  0  0  0  0  0  0  0  0  0  0  0
    1.9206    1.5316    0.0000 C   0  0  0  0  0  0  0  0  0  0  0  0
    1.2062    1.1191    0.0000 C   0  0  0  0  0  0  0  0  0  0  0  0
    0.4917    1.5316    0.0000 C   0  0  0  0  0  0  0  0  0  0  0  0
    0.4917    2.3566    0.0000 C   0  0  0  0  0  0  0  0  0  0  0  0
    1.2062    2.7691    0.0000 C   0  0  0  0  0  0  0  0  0  0  0  0
    1.9206    2.3566    0.0000 C   0  0  0  0  0  0  0  0  0  0  0  0
    2.5656    2.8710    0.0000 O   0  0  0  0  0  0  0  0  0  0  0  0
    3.3700    2.6874    0.0000 C   0  0  0  0  0  0  0  0  0  0  0  0
  1  2  1  0  0  0  0
  2  3  1  0  0  0  0
  3  4  1  0  0  0  0
  4  5  2  0  0  0  0
  5  6  1  0  0  0  0
  6  7  2  0  0  0  0
  7  8  1  0  0  0  0
  8  9  2  0  0  0  0
  4  9  1  0  0  0  0
  9 10  1  0  0  0  0
 10 11  1  0  0  0  0
  1 11  1  0  0  0  0
M  END
>  <Catalog ID>
Z56963396

>  <PlateID>
1198308-R-SPFL-03

>  <Well>
E08

>  <MW (desalted)>
150.175

>  <ClogP>
2.225

>  <HBD>
0

>  <TPSA>
18.460

>  <RotBonds>
0

$$$$

            

 12 13  0  0  0  0            999 V2000
    0.7145   -0.4125    0.0000 O   0  0  0  0  0  0  0  0  0  0  0  0
    0.7145   -1.2375    0.0000 C   0  0  0  0  0  0  0  0  0  0  0  0
    1.3819   -1.7224    0.0000 C   0  0  0  0  0  0  0  0  0  0  0  0
    1.1270   -2.5070    0.0000 C   0  0  0  0  0  0  0  0  0  0  0  0
    0.3020   -2.5070    0.0000 N   0  0  0  0  0  0  0  0  0  0  0  0
    0.0470   -1.7224    0.0000 C   0  0  0  0  0  0  0  0  0  0  0  0
   -0.1830   -3.1745    0.0000 C   0  0  0  0  0  0  0  0  0  0  0  0
    0.1526   -3.9282    0.0000 C   0  0  0  0  0  0  0  0  0  0  0  0
   -0.3323   -4.5956    0.0000 C   0  0  0  0  0  0  0  0  0  0  0  0
   -1.1528   -4.5094    0.0000 C   0  0  0  0  0  0  0  0  0  0  0  0
   -1.4884   -3.7557    0.0000 C   0  0  0  0  0  0  0  0  0  0  0  0
   -1.0034   -3.0882    0.0000 C   0  0  0  0  0  0  0  0  0  0  0  0
  1  2  1  0  0  0  0
  2  3  1  0  0  0  0
  3  4  1  0  0  0  0
  4  5  1  0  0  0  0
  5  6  1  0  0  0  0
  2  6  1  0  0  0  0
  5  7  1  0  0  0  0
  7  8  2  0  0  0  0
  8  9  1  0  0  0  0
  9 10  2  0  0  0  0
 10 11  1  0  0  0  0
 11 12  2  0  0  0  0
  7 12  1  0  0  0  0
M  END
>  <Catalog ID>
Z1198184574

>  <PlateID>
1198308-R-SPFL-03

>  <Well>
E09

>  <MW (desalted)>
163.216

>  <ClogP>
1.088

>  <HBD>
1

>  <TPSA>
23.470

>  <RotBonds>
1

$$$$

            

 10 10  0  0  0  0            999 V2000
    0.0000    2.4750    0.0000 O   0  0  0  0  0  0  0  0  0  0  0  0
    0.7145    2.0625    0.0000 C   0  0  0  0  0  0  0  0  0  0  0  0
    1.4289    2.4750    0.0000 O   0  0  0  0  0  0  0  0  0  0  0  0
    0.7145    1.2375    0.0000 C   0  0  0  0  0  0  0  0  0  0  0  0
    1.4289    0.8250    0.0000 C   0  0  0  0  0  0  0  0  0  0  0  0
    1.4289   -0.0000    0.0000 N   0  0  0  0  0  0  0  0  0  0  0  0
    0.7145   -0.4125    0.0000 C   0  0  0  0  0  0  0  0  0  0  0  0
    0.0000    0.0000    0.0000 C   0  0  0  0  0  0  0  0  0  0  0  0
   -0.7145   -0.4125    0.0000 Cl  0  0  0  0  0  0  0  0  0  0  0  0
    0.0000    0.8250    0.0000 C   0  0  0  0  0  0  0  0  0  0  0  0
  1  2  1  0  0  0  0
  2  3  2  0  0  0  0
  2  4  1  0  0  0  0
  4  5  2  0  0  0  0
  5  6  1  0  0  0  0
  6  7  2  0  0  0  0
  7  8  1  0  0  0  0
  8  9  1  0  0  0  0
  8 10  2  0  0  0  0
  4 10  1  0  0  0  0
M  END
>  <Catalog ID>
Z972756276

>  <PlateID>
1198308-R-SPFL-03

>  <Well>
E10

>  <MW (desalted)>
157.554

>  <ClogP>
1.555

>  <HBD>
1

>  <TPSA>
50.190

>  <RotBonds>
1

$$$$

            

 11 12  0  0  0  0            999 V2000
    4.0668    3.1729    0.0000 C   0  0  0  0  0  0  0  0  0  0  0  0
    4.0668    2.3479    0.0000 O   0  0  0  0  0  0  0  0  0  0  0  0
    3.3523    1.9354    0.0000 C   0  0  0  0  0  0  0  0  0  0  0  0
    3.3523    1.1104    0.0000 C   0  0  0  0  0  0  0  0  0  0  0  0
    2.6378    0.6979    0.0000 C   0  0  0  0  0  0  0  0  0  0  0  0
    1.9233    1.1104    0.0000 C   0  0  0  0  0  0  0  0  0  0  0  0
    1.1387    0.8555    0.0000 C   0  0  0  0  0  0  0  0  0  0  0  0
    0.6538    1.5229    0.0000 C   0  0  0  0  0  0  0  0  0  0  0  0
    1.1387    2.1904    0.0000 N   0  0  0  0  0  0  0  0  0  0  0  0
    1.9233    1.9354    0.0000 C   0  0  0  0  0  0  0  0  0  0  0  0
    2.6378    2.3479    0.0000 N   0  0  0  0  0  0  0  0  0  0  0  0
  1  2  1  0  0  0  0
  2  3  1  0  0  0  0
  3  4  2  0  0  0  0
  4  5  1  0  0  0  0
  5  6  2  0  0  0  0
  6  7  1  0  0  0  0
  7  8  1  0  0  0  0
  8  9  1  0  0  0  0
  9 10  1  0  0  0  0
  6 10  1  0  0  0  0
 10 11  2  0  0  0  0
  3 11  1  0  0  0  0
M  END
>  <Catalog ID>
Z1255390060

>  <PlateID>
1198308-R-SPFL-03

>  <Well>
E11

>  <MW (desalted)>
150.178

>  <ClogP>
2.100

>  <HBD>
1

>  <TPSA>
34.150

>  <RotBonds>
1

$$$$

            

 12 12  0  0  0  0            999 V2000
    0.0000    2.4750    0.0000 O   0  0  0  0  0  0  0  0  0  0  0  0
    0.7145    2.0625    0.0000 C   0  0  0  0  0  0  0  0  0  0  0  0
    0.7145    1.2375    0.0000 C   0  0  0  0  0  0  0  0  0  0  0  0
    1.4289    0.8250    0.0000 C   0  0  0  0  0  0  0  0  0  0  0  0
    1.4289   -0.0000    0.0000 C   0  0  0  0  0  0  0  0  0  0  0  0
    0.7145   -0.4125    0.0000 N   0  0  0  0  0  0  0  0  0  0  0  0
    0.7145   -1.2375    0.0000 C   0  0  0  0  0  0  0  0  0  0  0  0
   -0.0000   -1.6500    0.0000 C   0  0  0  0  0  0  0  0  0  0  0  0
   -0.0000   -2.4750    0.0000 F   0  0  0  0  0  0  0  0  0  0  0  0
   -0.7145   -1.2375    0.0000 F   0  0  0  0  0  0  0  0  0  0  0  0
    0.0000    0.0000    0.0000 C   0  0  0  0  0  0  0  0  0  0  0  0
    0.0000    0.8250    0.0000 C   0  0  0  0  0  0  0  0  0  0  0  0
  1  2  1  0  0  0  0
  2  3  1  0  0  0  0
  3  4  1  0  0  0  0
  4  5  1  0  0  0  0
  5  6  1  0  0  0  0
  6  7  1  0  0  0  0
  7  8  1  0  0  0  0
  8  9  1  0  0  0  0
  8 10  1  0  0  0  0
  6 11  1  0  0  0  0
 11 12  1  0  0  0  0
  3 12  1  0  0  0  0
M  END
>  <Catalog ID>
Z905448770

>  <PlateID>
1198308-R-SPFL-03

>  <Well>
F02

>  <MW (desalted)>
179.208

>  <ClogP>
0.318

>  <HBD>
1

>  <TPSA>
23.470

>  <RotBonds>
3

$$$$

            

 11 11  0  0  0  0            999 V2000
   -0.7145    3.7125    0.0000 C   0  0  0  0  0  0  0  0  0  0  0  0
    0.0000    3.3000    0.0000 O   0  0  0  0  0  0  0  0  0  0  0  0
    0.0000    2.4750    0.0000 C   0  0  0  0  0  0  0  0  0  0  0  0
    0.7145    2.0625    0.0000 C   0  0  0  0  0  0  0  0  0  0  0  0
    0.7145    1.2375    0.0000 C   0  0  0  0  0  0  0  0  0  0  0  0
    1.4289    0.8250    0.0000 C   0  0  0  0  0  0  0  0  0  0  0  0
    1.4289   -0.0000    0.0000 C   0  0  0  0  0  0  0  0  0  0  0  0
    0.7145   -0.4125    0.0000 N   0  0  0  0  0  0  0  0  0  0  0  0
    0.0000    0.0000    0.0000 C   0  0  0  0  0  0  0  0  0  0  0  0
   -0.7145   -0.4125    0.0000 N   0  0  0  0  0  0  0  0  0  0  0  0
    0.0000    0.8250    0.0000 C   0  0  0  0  0  0  0  0  0  0  0  0
  1  2  1  0  0  0  0
  2  3  1  0  0  0  0
  3  4  1  0  0  0  0
  4  5  1  0  0  0  0
  5  6  2  0  0  0  0
  6  7  1  0  0  0  0
  7  8  2  0  0  0  0
  8  9  1  0  0  0  0
  9 10  1  0  0  0  0
  9 11  2  0  0  0  0
  5 11  1  0  0  0  0
M  END
>  <Catalog ID>
Z1333211037

>  <PlateID>
1198308-R-SPFL-03

>  <Well>
F03

>  <MW (desalted)>
152.194

>  <ClogP>
0.225

>  <HBD>
1

>  <TPSA>
48.140

>  <RotBonds>
3

$$$$

            

 11 12  0  0  0  0            999 V2000
   -0.1712   -0.6979    0.0000 C   0  0  0  0  0  0  0  0  0  0  0  0
    0.6538   -0.6979    0.0000 C   0  0  0  0  0  0  0  0  0  0  0  0
    1.1387   -0.0305    0.0000 C   0  0  0  0  0  0  0  0  0  0  0  0
    1.9233   -0.2854    0.0000 N   0  0  0  0  0  0  0  0  0  0  0  0
    2.6378    0.1271    0.0000 C   0  0  0  0  0  0  0  0  0  0  0  0
    3.3523   -0.2854    0.0000 C   0  0  0  0  0  0  0  0  0  0  0  0
    3.3523   -1.1104    0.0000 C   0  0  0  0  0  0  0  0  0  0  0  0
    4.0668   -1.5229    0.0000 N   0  0  0  0  0  0  0  0  0  0  0  0
    2.6378   -1.5229    0.0000 C   0  0  0  0  0  0  0  0  0  0  0  0
    1.9233   -1.1104    0.0000 C   0  0  0  0  0  0  0  0  0  0  0  0
    1.1387   -1.3654    0.0000 N   0  0  0  0  0  0  0  0  0  0  0  0
  1  2  1  0  0  0  0
  2  3  2  0  0  0  0
  3  4  1  0  0  0  0
  4  5  1  0  0  0  0
  5  6  2  0  0  0  0
  6  7  1  0  0  0  0
  7  8  1  0  0  0  0
  7  9  2  0  0  0  0
  9 10  1  0  0  0  0
  4 10  1  0  0  0  0
 10 11  2  0  0  0  0
  2 11  1  0  0  0  0
M  END
>  <Catalog ID>
Z1509499115

>  <PlateID>
1198308-R-SPFL-03

>  <Well>
F04

>  <MW (desalted)>
147.177

>  <ClogP>
1.148

>  <HBD>
1

>  <TPSA>
43.320

>  <RotBonds>
0

$$$$

            

 11 11  0  0  0  0            999 V2000
    0.0000    2.4750    0.0000 C   0  0  0  0  0  0  0  0  0  0  0  0
    0.7145    2.0625    0.0000 O   0  0  0  0  0  0  0  0  0  0  0  0
    0.7145    1.2375    0.0000 C   0  0  0  0  0  0  0  0  0  0  0  0
    1.4289    0.8250    0.0000 C   0  0  0  0  0  0  0  0  0  0  0  0
    1.4289   -0.0000    0.0000 C   0  0  0  0  0  0  0  0  0  0  0  0
    2.1434   -0.4125    0.0000 C   0  0  0  0  0  0  0  0  0  0  0  0
    2.8579   -0.0000    0.0000 O   0  0  0  0  0  0  0  0  0  0  0  0
    0.7145   -0.4125    0.0000 C   0  0  0  0  0  0  0  0  0  0  0  0
    0.0000    0.0000    0.0000 C   0  0  0  0  0  0  0  0  0  0  0  0
    0.0000    0.8250    0.0000 C   0  0  0  0  0  0  0  0  0  0  0  0
   -0.7145    1.2375    0.0000 F   0  0  0  0  0  0  0  0  0  0  0  0
  1  2  1  0  0  0  0
  2  3  1  0  0  0  0
  3  4  2  0  0  0  0
  4  5  1  0  0  0  0
  5  6  1  0  0  0  0
  6  7  1  0  0  0  0
  5  8  2  0  0  0  0
  8  9  1  0  0  0  0
  9 10  2  0  0  0  0
  3 10  1  0  0  0  0
 10 11  1  0  0  0  0
M  END
>  <Catalog ID>
Z1201620066

>  <PlateID>
1198308-R-SPFL-03

>  <Well>
F05

>  <MW (desalted)>
156.154

>  <ClogP>
1.106

>  <HBD>
1

>  <TPSA>
29.460

>  <RotBonds>
2

$$$$

            

 10 10  0  0  0  0            999 V2000
    0.0157    1.7274    0.0000 O   0  0  0  0  0  0  0  0  0  0  0  0
    0.5678    1.1143    0.0000 C   0  0  0  0  0  0  0  0  0  0  0  0
    1.2352    0.6294    0.0000 C   0  0  0  0  0  0  0  0  0  0  0  0
    0.9803   -0.1553    0.0000 C   0  0  0  0  0  0  0  0  0  0  0  0
    0.1553   -0.1553    0.0000 O   0  0  0  0  0  0  0  0  0  0  0  0
   -0.0997    0.6294    0.0000 C   0  0  0  0  0  0  0  0  0  0  0  0
    1.1198    1.7274    0.0000 C   0  0  0  0  0  0  0  0  0  0  0  0
    1.6718    2.3405    0.0000 F   0  0  0  0  0  0  0  0  0  0  0  0
    1.7329    1.1753    0.0000 F   0  0  0  0  0  0  0  0  0  0  0  0
    0.5067    2.2794    0.0000 F   0  0  0  0  0  0  0  0  0  0  0  0
  1  2  1  0  0  0  0
  2  3  1  0  0  0  0
  3  4  1  0  0  0  0
  4  5  1  0  0  0  0
  5  6  1  0  0  0  0
  2  6  1  0  0  0  0
  2  7  1  0  0  0  0
  7  8  1  0  0  0  0
  7  9  1  0  0  0  0
  7 10  1  0  0  0  0
M  END
>  <Catalog ID>
Z1124555815

>  <PlateID>
1198308-R-SPFL-03

>  <Well>
F06

>  <MW (desalted)>
156.103

>  <ClogP>
0.262

>  <HBD>
1

>  <TPSA>
29.460

>  <RotBonds>
1

$$$$

            

 14 15  0  0  0  0            999 V2000
   -0.7145   -2.8875    0.0000 C   0  0  0  0  0  0  0  0  0  0  0  0
    0.0000   -2.4750    0.0000 C   0  0  0  0  0  0  0  0  0  0  0  0
    0.0000   -1.6500    0.0000 O   0  0  0  0  0  0  0  0  0  0  0  0
    0.7145   -1.2375    0.0000 C   0  0  0  0  0  0  0  0  0  0  0  0
    0.7145   -0.4125    0.0000 C   0  0  0  0  0  0  0  0  0  0  0  0
    1.4289    0.0000    0.0000 C   0  0  0  0  0  0  0  0  0  0  0  0
    2.1434   -0.4125    0.0000 C   0  0  0  0  0  0  0  0  0  0  0  0
    2.8579    0.0000    0.0000 N   0  0  0  0  0  0  0  0  0  0  0  0
    3.5724   -0.4125    0.0000 C   0  0  0  0  0  0  0  0  0  0  0  0
    4.2868   -0.0000    0.0000 O   0  0  0  0  0  0  0  0  0  0  0  0
    3.5724   -1.2375    0.0000 C   0  0  0  0  0  0  0  0  0  0  0  0
    2.8579   -1.6500    0.0000 S   0  0  0  0  0  0  0  0  0  0  0  0
    2.1434   -1.2375    0.0000 C   0  0  0  0  0  0  0  0  0  0  0  0
    1.4289   -1.6500    0.0000 C   0  0  0  0  0  0  0  0  0  0  0  0
  1  2  1  0  0  0  0
  2  3  1  0  0  0  0
  3  4  1  0  0  0  0
  4  5  2  0  0  0  0
  5  6  1  0  0  0  0
  6  7  2  0  0  0  0
  7  8  1  0  0  0  0
  8  9  1  0  0  0  0
  9 10  2  0  0  0  0
  9 11  1  0  0  0  0
 11 12  1  0  0  0  0
 12 13  1  0  0  0  0
  7 13  1  0  0  0  0
 13 14  2  0  0  0  0
  4 14  1  0  0  0  0
M  END
>  <Catalog ID>
Z56763069

>  <PlateID>
1198308-R-SPFL-03

>  <Well>
F07

>  <MW (desalted)>
209.265

>  <ClogP>
1.892

>  <HBD>
1

>  <TPSA>
38.330

>  <RotBonds>
2

$$$$

            

 13 14  0  0  0  0            999 V2000
    2.0367   -0.4741    0.0000 C   0  0  0  0  0  0  0  0  0  0  0  0
    2.0367   -1.2991    0.0000 C   0  0  0  0  0  0  0  0  0  0  0  0
    2.7041   -1.7840    0.0000 N   0  0  0  0  0  0  0  0  0  0  0  0
    2.4492   -2.5687    0.0000 C   0  0  0  0  0  0  0  0  0  0  0  0
    2.9341   -3.2361    0.0000 C   0  0  0  0  0  0  0  0  0  0  0  0
    2.5986   -3.9898    0.0000 N   0  0  0  0  0  0  0  0  0  0  0  0
    3.0835   -4.6572    0.0000 C   0  0  0  0  0  0  0  0  0  0  0  0
    2.7479   -5.4109    0.0000 C   0  0  0  0  0  0  0  0  0  0  0  0
    1.9275   -5.4971    0.0000 C   0  0  0  0  0  0  0  0  0  0  0  0
    1.4425   -4.8297    0.0000 C   0  0  0  0  0  0  0  0  0  0  0  0
    1.7781   -4.0760    0.0000 C   0  0  0  0  0  0  0  0  0  0  0  0
    1.6242   -2.5687    0.0000 C   0  0  0  0  0  0  0  0  0  0  0  0
    1.3693   -1.7840    0.0000 S   0  0  0  0  0  0  0  0  0  0  0  0
  1  2  1  0  0  0  0
  2  3  2  0  0  0  0
  3  4  1  0  0  0  0
  4  5  1  0  0  0  0
  5  6  1  0  0  0  0
  6  7  1  0  0  0  0
  7  8  1  0  0  0  0
  8  9  1  0  0  0  0
  9 10  1  0  0  0  0
 10 11  1  0  0  0  0
  6 11  1  0  0  0  0
  4 12  2  0  0  0  0
 12 13  1  0  0  0  0
  2 13  1  0  0  0  0
M  END
>  <Catalog ID>
Z56347465

>  <PlateID>
1198308-R-SPFL-03

>  <Well>
F08

>  <MW (desalted)>
196.312

>  <ClogP>
2.012

>  <HBD>
0

>  <TPSA>
16.130

>  <RotBonds>
2

$$$$

            

 12 12  0  0  0  0            999 V2000
    0.0000    2.4750    0.0000 C   0  0  0  0  0  0  0  0  0  0  0  0
    0.7145    2.0625    0.0000 O   0  0  0  0  0  0  0  0  0  0  0  0
    0.7145    1.2375    0.0000 C   0  0  0  0  0  0  0  0  0  0  0  0
    1.4289    0.8250    0.0000 C   0  0  0  0  0  0  0  0  0  0  0  0
    1.4289   -0.0000    0.0000 C   0  0  0  0  0  0  0  0  0  0  0  0
    0.7145   -0.4125    0.0000 C   0  0  0  0  0  0  0  0  0  0  0  0
    0.7145   -1.2375    0.0000 C   0  0  0  0  0  0  0  0  0  0  0  0
   -0.0000   -1.6500    0.0000 C   0  0  0  0  0  0  0  0  0  0  0  0
   -0.0000   -2.4750    0.0000 O   0  0  0  0  0  0  0  0  0  0  0  0
   -0.7145   -1.2375    0.0000 O   0  0  0  0  0  0  0  0  0  0  0  0
    0.0000    0.0000    0.0000 C   0  0  0  0  0  0  0  0  0  0  0  0
    0.0000    0.8250    0.0000 C   0  0  0  0  0  0  0  0  0  0  0  0
  1  2  1  0  0  0  0
  2  3  1  0  0  0  0
  3  4  2  0  0  0  0
  4  5  1  0  0  0  0
  5  6  2  0  0  0  0
  6  7  1  0  0  0  0
  7  8  1  0  0  0  0
  8  9  2  0  0  0  0
  8 10  1  0  0  0  0
  6 11  1  0  0  0  0
 11 12  2  0  0  0  0
  3 12  1  0  0  0  0
M  END
>  <Catalog ID>
Z104476074

>  <PlateID>
1198308-R-SPFL-03

>  <Well>
F09

>  <MW (desalted)>
166.174

>  <ClogP>
1.333

>  <HBD>
1

>  <TPSA>
46.530

>  <RotBonds>
3

$$$$

            

 15 14  0  0  0  0            999 V2000
    0.0000    0.0000    0.0000 Cl  0  0  0  0  0  0  0  0  0  0  0  0
    2.0036    0.0000    0.0000 Cl  0  0  0  0  0  0  0  0  0  0  0  0
   -0.6595   -1.6500    0.0000 N   0  0  0  0  0  0  0  0  0  0  0  0
    0.0550   -2.0625    0.0000 C   0  0  0  0  0  0  0  0  0  0  0  0
    0.0550   -2.8875    0.0000 C   0  0  0  0  0  0  0  0  0  0  0  0
    0.7694   -3.3000    0.0000 C   0  0  0  0  0  0  0  0  0  0  0  0
    0.7694   -4.1250    0.0000 C   0  0  0  0  0  0  0  0  0  0  0  0
    0.0550   -4.5375    0.0000 C   0  0  0  0  0  0  0  0  0  0  0  0
   -0.6595   -4.1250    0.0000 C   0  0  0  0  0  0  0  0  0  0  0  0
   -0.6595   -3.3000    0.0000 C   0  0  0  0  0  0  0  0  0  0  0  0
    0.0550   -5.3625    0.0000 N   0  0  0  0  0  0  0  0  0  0  0  0
    0.7224   -5.8474    0.0000 C   0  0  0  0  0  0  0  0  0  0  0  0
    0.4675   -6.6320    0.0000 N   0  0  0  0  0  0  0  0  0  0  0  0
   -0.3575   -6.6320    0.0000 C   0  0  0  0  0  0  0  0  0  0  0  0
   -0.6125   -5.8474    0.0000 N   0  0  0  0  0  0  0  0  0  0  0  0
  3  4  1  0  0  0  0
  4  5  1  0  0  0  0
  5  6  2  0  0  0  0
  6  7  1  0  0  0  0
  7  8  2  0  0  0  0
  8  9  1  0  0  0  0
  9 10  2  0  0  0  0
  5 10  1  0  0  0  0
  8 11  1  0  0  0  0
 11 12  1  0  0  0  0
 12 13  2  0  0  0  0
 13 14  1  0  0  0  0
 14 15  2  0  0  0  0
 11 15  1  0  0  0  0
M  END
>  <Catalog ID>
Z857667046

>  <PlateID>
1198308-R-SPFL-03

>  <Well>
F10

>  <MW (desalted)>
174.203

>  <ClogP>
0.155

>  <HBD>
1

>  <TPSA>
56.730

>  <RotBonds>
2

$$$$

            

 11 12  0  0  0  0            999 V2000
    1.1270   -2.5070    0.0000 C   0  0  0  0  0  0  0  0  0  0  0  0
    0.3020   -2.5070    0.0000 C   0  0  0  0  0  0  0  0  0  0  0  0
    0.0470   -1.7224    0.0000 N   0  0  0  0  0  0  0  0  0  0  0  0
    0.7145   -1.2375    0.0000 C   0  0  0  0  0  0  0  0  0  0  0  0
    1.3819   -1.7224    0.0000 N   0  0  0  0  0  0  0  0  0  0  0  0
    0.7145   -0.4125    0.0000 C   0  0  0  0  0  0  0  0  0  0  0  0
    0.0000    0.0000    0.0000 C   0  0  0  0  0  0  0  0  0  0  0  0
    0.0000    0.8250    0.0000 C   0  0  0  0  0  0  0  0  0  0  0  0
    0.7145    1.2375    0.0000 N   0  0  0  0  0  0  0  0  0  0  0  0
    1.4289    0.8250    0.0000 C   0  0  0  0  0  0  0  0  0  0  0  0
    1.4289   -0.0000    0.0000 C   0  0  0  0  0  0  0  0  0  0  0  0
  1  2  2  0  0  0  0
  2  3  1  0  0  0  0
  3  4  1  0  0  0  0
  4  5  2  0  0  0  0
  1  5  1  0  0  0  0
  4  6  1  0  0  0  0
  6  7  2  0  0  0  0
  7  8  1  0  0  0  0
  8  9  2  0  0  0  0
  9 10  1  0  0  0  0
 10 11  2  0  0  0  0
  6 11  1  0  0  0  0
M  END
>  <Catalog ID>
Z728187792

>  <PlateID>
1198308-R-SPFL-03

>  <Well>
F11

>  <MW (desalted)>
145.161

>  <ClogP>
0.730

>  <HBD>
1

>  <TPSA>
41.570

>  <RotBonds>
1

$$$$

            

 10 10  0  0  0  0            999 V2000
    0.5678    1.9393    0.0000 C   0  0  0  0  0  0  0  0  0  0  0  0
    0.5678    1.1143    0.0000 C   0  0  0  0  0  0  0  0  0  0  0  0
    1.2352    0.6294    0.0000 C   0  0  0  0  0  0  0  0  0  0  0  0
    0.9803   -0.1553    0.0000 C   0  0  0  0  0  0  0  0  0  0  0  0
    0.1553   -0.1553    0.0000 N   0  0  0  0  0  0  0  0  0  0  0  0
   -0.0997    0.6294    0.0000 N   0  0  0  0  0  0  0  0  0  0  0  0
    1.4652   -0.8227    0.0000 C   0  0  0  0  0  0  0  0  0  0  0  0
    1.9501   -1.4901    0.0000 F   0  0  0  0  0  0  0  0  0  0  0  0
    0.7977   -1.3076    0.0000 F   0  0  0  0  0  0  0  0  0  0  0  0
    2.1326   -0.3378    0.0000 F   0  0  0  0  0  0  0  0  0  0  0  0
  1  2  1  0  0  0  0
  2  3  1  0  0  0  0
  3  4  2  0  0  0  0
  4  5  1  0  0  0  0
  5  6  1  0  0  0  0
  2  6  2  0  0  0  0
  4  7  1  0  0  0  0
  7  8  1  0  0  0  0
  7  9  1  0  0  0  0
  7 10  1  0  0  0  0
M  END
>  <Catalog ID>
Z2160887338

>  <PlateID>
1198308-R-SPFL-03

>  <Well>
G02

>  <MW (desalted)>
150.102

>  <ClogP>
1.785

>  <HBD>
1

>  <TPSA>
28.680

>  <RotBonds>
1

$$$$

            

 11 11  0  0  0  0            999 V2000
    1.2822    2.3518    0.0000 C   0  0  0  0  0  0  0  0  0  0  0  0
    0.5678    1.9393    0.0000 C   0  0  0  0  0  0  0  0  0  0  0  0
   -0.1467    2.3518    0.0000 C   0  0  0  0  0  0  0  0  0  0  0  0
    0.5678    1.1143    0.0000 C   0  0  0  0  0  0  0  0  0  0  0  0
    1.2352    0.6294    0.0000 O   0  0  0  0  0  0  0  0  0  0  0  0
    0.9803   -0.1553    0.0000 C   0  0  0  0  0  0  0  0  0  0  0  0
    0.1553   -0.1553    0.0000 C   0  0  0  0  0  0  0  0  0  0  0  0
   -0.0997    0.6294    0.0000 C   0  0  0  0  0  0  0  0  0  0  0  0
   -0.8843    0.8843    0.0000 C   0  0  0  0  0  0  0  0  0  0  0  0
   -1.4974    0.3323    0.0000 O   0  0  0  0  0  0  0  0  0  0  0  0
   -1.0558    1.6913    0.0000 O   0  0  0  0  0  0  0  0  0  0  0  0
  1  2  1  0  0  0  0
  2  3  1  0  0  0  0
  2  4  1  0  0  0  0
  4  5  1  0  0  0  0
  5  6  1  0  0  0  0
  6  7  2  0  0  0  0
  7  8  1  0  0  0  0
  4  8  2  0  0  0  0
  8  9  1  0  0  0  0
  9 10  2  0  0  0  0
  9 11  1  0  0  0  0
M  END
>  <Catalog ID>
Z1262515562

>  <PlateID>
1198308-R-SPFL-03

>  <Well>
G03

>  <MW (desalted)>
154.163

>  <ClogP>
1.388

>  <HBD>
1

>  <TPSA>
50.440

>  <RotBonds>
2

$$$$

            

 11 12  0  0  0  0            999 V2000
   -0.5837   -1.4124    0.0000 O   0  0  0  0  0  0  0  0  0  0  0  0
   -0.1712   -0.6979    0.0000 C   0  0  0  0  0  0  0  0  0  0  0  0
    0.6538   -0.6979    0.0000 C   0  0  0  0  0  0  0  0  0  0  0  0
    1.1387   -0.0305    0.0000 C   0  0  0  0  0  0  0  0  0  0  0  0
    1.9233   -0.2854    0.0000 C   0  0  0  0  0  0  0  0  0  0  0  0
    2.6378    0.1271    0.0000 C   0  0  0  0  0  0  0  0  0  0  0  0
    3.3523   -0.2854    0.0000 C   0  0  0  0  0  0  0  0  0  0  0  0
    3.3523   -1.1104    0.0000 C   0  0  0  0  0  0  0  0  0  0  0  0
    2.6378   -1.5229    0.0000 C   0  0  0  0  0  0  0  0  0  0  0  0
    1.9233   -1.1104    0.0000 C   0  0  0  0  0  0  0  0  0  0  0  0
    1.1387   -1.3654    0.0000 C   0  0  0  0  0  0  0  0  0  0  0  0
  1  2  1  0  0  0  0
  2  3  1  0  0  0  0
  3  4  1  0  0  0  0
  4  5  1  0  0  0  0
  5  6  2  0  0  0  0
  6  7  1  0  0  0  0
  7  8  2  0  0  0  0
  8  9  1  0  0  0  0
  9 10  2  0  0  0  0
  5 10  1  0  0  0  0
 10 11  1  0  0  0  0
  3 11  1  0  0  0  0
M  END
>  <Catalog ID>
Z1198176601

>  <PlateID>
1198308-R-SPFL-03

>  <Well>
G04

>  <MW (desalted)>
148.202

>  <ClogP>
1.687

>  <HBD>
1

>  <TPSA>
20.230

>  <RotBonds>
1

$$$$

            

 15 15  0  0  0  0            999 V2000
    0.0000    0.0000    0.0000 Cl  0  0  0  0  0  0  0  0  0  0  0  0
    3.0716   -1.9446    0.0000 C   0  0  0  0  0  0  0  0  0  0  0  0
    3.0716   -1.1196    0.0000 N   0  0  0  0  0  0  0  0  0  0  0  0
    2.3571   -0.7071    0.0000 C   0  0  0  0  0  0  0  0  0  0  0  0
    2.3571    0.1179    0.0000 C   0  0  0  0  0  0  0  0  0  0  0  0
    3.0716    0.5304    0.0000 C   0  0  0  0  0  0  0  0  0  0  0  0
    3.0716    1.3554    0.0000 C   0  0  0  0  0  0  0  0  0  0  0  0
    2.3571    1.7679    0.0000 O   0  0  0  0  0  0  0  0  0  0  0  0
    3.7861    1.7679    0.0000 O   0  0  0  0  0  0  0  0  0  0  0  0
    3.7861    0.1179    0.0000 C   0  0  0  0  0  0  0  0  0  0  0  0
    4.5006    0.5304    0.0000 C   0  0  0  0  0  0  0  0  0  0  0  0
    5.2150    0.1179    0.0000 C   0  0  0  0  0  0  0  0  0  0  0  0
    5.2150   -0.7071    0.0000 C   0  0  0  0  0  0  0  0  0  0  0  0
    4.5006   -1.1196    0.0000 C   0  0  0  0  0  0  0  0  0  0  0  0
    3.7861   -0.7071    0.0000 C   0  0  0  0  0  0  0  0  0  0  0  0
  2  3  1  0  0  0  0
  3  4  1  0  0  0  0
  4  5  1  0  0  0  0
  5  6  1  0  0  0  0
  6  7  1  0  0  0  0
  7  8  2  0  0  0  0
  7  9  1  0  0  0  0
  6 10  1  0  0  0  0
 10 11  2  0  0  0  0
 11 12  1  0  0  0  0
 12 13  2  0  0  0  0
 13 14  1  0  0  0  0
 14 15  2  0  0  0  0
  3 15  1  0  0  0  0
 10 15  1  0  0  0  0
M  END
>  <Catalog ID>
Z2492796275

>  <PlateID>
1198308-R-SPFL-03

>  <Well>
G05

>  <MW (desalted)>
191.226

>  <ClogP>
1.644

>  <HBD>
1

>  <TPSA>
40.540

>  <RotBonds>
1

$$$$

            

 13 12  0  0  0  0            999 V2000
    0.0000    0.0000    0.0000 Cl  0  0  0  0  0  0  0  0  0  0  0  0
    3.9113    0.7906    0.0000 N   0  0  0  0  0  0  0  0  0  0  0  0
    3.1968    0.3781    0.0000 C   0  0  0  0  0  0  0  0  0  0  0  0
    2.4823    0.7906    0.0000 C   0  0  0  0  0  0  0  0  0  0  0  0
    2.4823    1.6156    0.0000 C   0  0  0  0  0  0  0  0  0  0  0  0
    1.7679    2.0281    0.0000 F   0  0  0  0  0  0  0  0  0  0  0  0
    3.1968    2.0281    0.0000 F   0  0  0  0  0  0  0  0  0  0  0  0
    3.1968   -0.4469    0.0000 C   0  0  0  0  0  0  0  0  0  0  0  0
    3.9113   -0.8594    0.0000 C   0  0  0  0  0  0  0  0  0  0  0  0
    3.9113   -1.6844    0.0000 C   0  0  0  0  0  0  0  0  0  0  0  0
    3.1968   -2.0969    0.0000 C   0  0  0  0  0  0  0  0  0  0  0  0
    2.4823   -1.6844    0.0000 C   0  0  0  0  0  0  0  0  0  0  0  0
    2.4823   -0.8594    0.0000 C   0  0  0  0  0  0  0  0  0  0  0  0
  2  3  1  0  0  0  0
  3  4  1  0  0  0  0
  4  5  1  0  0  0  0
  5  6  1  0  0  0  0
  5  7  1  0  0  0  0
  3  8  1  0  0  0  0
  8  9  2  0  0  0  0
  9 10  1  0  0  0  0
 10 11  2  0  0  0  0
 11 12  1  0  0  0  0
 12 13  2  0  0  0  0
  8 13  1  0  0  0  0
M  END
>  <Catalog ID>
Z2327568967

>  <PlateID>
1198308-R-SPFL-03

>  <Well>
G06

>  <MW (desalted)>
171.187

>  <ClogP>
1.078

>  <HBD>
1

>  <TPSA>
26.020

>  <RotBonds>
3

$$$$

            

 12 13  0  0  0  0            999 V2000
   -0.0980   -1.0942    0.0000 C   0  0  0  0  0  0  0  0  0  0  0  0
    0.7145   -1.2375    0.0000 C   0  0  0  0  0  0  0  0  0  0  0  0
    0.4323   -2.0127    0.0000 C   0  0  0  0  0  0  0  0  0  0  0  0
    0.7145   -0.4125    0.0000 C   0  0  0  0  0  0  0  0  0  0  0  0
    1.4289    0.0000    0.0000 N   0  0  0  0  0  0  0  0  0  0  0  0
    2.1434   -0.4125    0.0000 C   0  0  0  0  0  0  0  0  0  0  0  0
    2.8579    0.0000    0.0000 N   0  0  0  0  0  0  0  0  0  0  0  0
    3.5724   -0.4125    0.0000 C   0  0  0  0  0  0  0  0  0  0  0  0
    3.5724   -1.2375    0.0000 C   0  0  0  0  0  0  0  0  0  0  0  0
    2.8579   -1.6500    0.0000 C   0  0  0  0  0  0  0  0  0  0  0  0
    2.1434   -1.2375    0.0000 C   0  0  0  0  0  0  0  0  0  0  0  0
    1.4289   -1.6500    0.0000 O   0  0  0  0  0  0  0  0  0  0  0  0
  1  2  1  0  0  0  0
  2  3  1  0  0  0  0
  2  4  1  0  0  0  0
  4  5  1  0  0  0  0
  5  6  1  0  0  0  0
  6  7  2  0  0  0  0
  7  8  1  0  0  0  0
  8  9  2  0  0  0  0
  9 10  1  0  0  0  0
 10 11  2  0  0  0  0
  6 11  1  0  0  0  0
 11 12  1  0  0  0  0
  2 12  1  0  0  0  0
M  END
>  <Catalog ID>
Z1255421457

>  <PlateID>
1198308-R-SPFL-03

>  <Well>
G07

>  <MW (desalted)>
164.204

>  <ClogP>
2.519

>  <HBD>
1

>  <TPSA>
34.150

>  <RotBonds>
0

$$$$

            

 11 11  0  0  0  0            999 V2000
    0.0000    0.0000    0.0000 Cl  0  0  0  0  0  0  0  0  0  0  0  0
    5.2987    0.7425    0.0000 Cl  0  0  0  0  0  0  0  0  0  0  0  0
    4.5842    0.3300    0.0000 C   0  0  0  0  0  0  0  0  0  0  0  0
    4.5842   -0.4950    0.0000 C   0  0  0  0  0  0  0  0  0  0  0  0
    3.8697   -0.9075    0.0000 C   0  0  0  0  0  0  0  0  0  0  0  0
    3.1553   -0.4950    0.0000 C   0  0  0  0  0  0  0  0  0  0  0  0
    2.3706   -0.7499    0.0000 C   0  0  0  0  0  0  0  0  0  0  0  0
    1.8857   -0.0825    0.0000 N   0  0  0  0  0  0  0  0  0  0  0  0
    2.3706    0.5849    0.0000 C   0  0  0  0  0  0  0  0  0  0  0  0
    3.1553    0.3300    0.0000 C   0  0  0  0  0  0  0  0  0  0  0  0
    3.8697    0.7425    0.0000 C   0  0  0  0  0  0  0  0  0  0  0  0
  2  3  1  0  0  0  0
  3  4  2  0  0  0  0
  4  5  1  0  0  0  0
  5  6  2  0  0  0  0
  6  7  1  0  0  0  0
  7  8  1  0  0  0  0
  8  9  1  0  0  0  0
  9 10  1  0  0  0  0
  6 10  1  0  0  0  0
 10 11  2  0  0  0  0
  3 11  1  0  0  0  0
M  END
>  <Catalog ID>
Z1198319382

>  <PlateID>
1198308-R-SPFL-03

>  <Well>
G08

>  <MW (desalted)>
153.609

>  <ClogP>
1.749

>  <HBD>
1

>  <TPSA>
12.030

>  <RotBonds>
0

$$$$

            

 14 15  0  0  0  0            999 V2000
   -0.9962   -0.6979    0.0000 F   0  0  0  0  0  0  0  0  0  0  0  0
   -0.1712   -0.6979    0.0000 C   0  0  0  0  0  0  0  0  0  0  0  0
   -0.1712   -1.5229    0.0000 F   0  0  0  0  0  0  0  0  0  0  0  0
   -0.1712    0.1271    0.0000 F   0  0  0  0  0  0  0  0  0  0  0  0
    0.6538   -0.6979    0.0000 C   0  0  0  0  0  0  0  0  0  0  0  0
    1.1387   -0.0305    0.0000 N   0  0  0  0  0  0  0  0  0  0  0  0
    1.9233   -0.2854    0.0000 C   0  0  0  0  0  0  0  0  0  0  0  0
    2.6378    0.1271    0.0000 N   0  0  0  0  0  0  0  0  0  0  0  0
    3.3523   -0.2854    0.0000 C   0  0  0  0  0  0  0  0  0  0  0  0
    3.3523   -1.1104    0.0000 N   0  0  0  0  0  0  0  0  0  0  0  0
    2.6378   -1.5229    0.0000 C   0  0  0  0  0  0  0  0  0  0  0  0
    2.6378   -2.3479    0.0000 O   0  0  0  0  0  0  0  0  0  0  0  0
    1.9233   -1.1104    0.0000 C   0  0  0  0  0  0  0  0  0  0  0  0
    1.1387   -1.3654    0.0000 N   0  0  0  0  0  0  0  0  0  0  0  0
  1  2  1  0  0  0  0
  2  3  1  0  0  0  0
  2  4  1  0  0  0  0
  2  5  1  0  0  0  0
  5  6  2  0  0  0  0
  6  7  1  0  0  0  0
  7  8  1  0  0  0  0
  8  9  2  0  0  0  0
  9 10  1  0  0  0  0
 10 11  1  0  0  0  0
 11 12  2  0  0  0  0
 11 13  1  0  0  0  0
  7 13  2  0  0  0  0
 13 14  1  0  0  0  0
  5 14  1  0  0  0  0
M  END
>  <Catalog ID>
Z1269130393

>  <PlateID>
1198308-R-SPFL-03

>  <Well>
G09

>  <MW (desalted)>
204.109

>  <ClogP>
-0.232

>  <HBD>
2

>  <TPSA>
70.140

>  <RotBonds>
1

$$$$

            

 11 12  0  0  0  0            999 V2000
    0.8838   -2.1500    0.0000 C   0  0  0  0  0  0  0  0  0  0  0  0
    1.1387   -1.3654    0.0000 N   0  0  0  0  0  0  0  0  0  0  0  0
    0.6538   -0.6979    0.0000 C   0  0  0  0  0  0  0  0  0  0  0  0
   -0.1712   -0.6979    0.0000 O   0  0  0  0  0  0  0  0  0  0  0  0
    1.1387   -0.0305    0.0000 C   0  0  0  0  0  0  0  0  0  0  0  0
    1.9233   -0.2854    0.0000 C   0  0  0  0  0  0  0  0  0  0  0  0
    2.6378    0.1271    0.0000 C   0  0  0  0  0  0  0  0  0  0  0  0
    3.3523   -0.2854    0.0000 C   0  0  0  0  0  0  0  0  0  0  0  0
    3.3523   -1.1104    0.0000 C   0  0  0  0  0  0  0  0  0  0  0  0
    2.6378   -1.5229    0.0000 C   0  0  0  0  0  0  0  0  0  0  0  0
    1.9233   -1.1104    0.0000 C   0  0  0  0  0  0  0  0  0  0  0  0
  1  2  1  0  0  0  0
  2  3  1  0  0  0  0
  3  4  2  0  0  0  0
  3  5  1  0  0  0  0
  5  6  1  0  0  0  0
  6  7  2  0  0  0  0
  7  8  1  0  0  0  0
  8  9  2  0  0  0  0
  9 10  1  0  0  0  0
 10 11  2  0  0  0  0
  2 11  1  0  0  0  0
  6 11  1  0  0  0  0
M  END
>  <Catalog ID>
Z56899025

>  <PlateID>
1198308-R-SPFL-03

>  <Well>
G10

>  <MW (desalted)>
147.174

>  <ClogP>
1.003

>  <HBD>
0

>  <TPSA>
20.310

>  <RotBonds>
0

$$$$

            

 13 14  0  0  0  0            999 V2000
    4.7812    3.5854    0.0000 O   0  0  0  0  0  0  0  0  0  0  0  0
    4.0668    3.1729    0.0000 C   0  0  0  0  0  0  0  0  0  0  0  0
    3.3523    3.5854    0.0000 O   0  0  0  0  0  0  0  0  0  0  0  0
    4.0668    2.3479    0.0000 C   0  0  0  0  0  0  0  0  0  0  0  0
    3.3523    1.9354    0.0000 C   0  0  0  0  0  0  0  0  0  0  0  0
    3.3523    1.1104    0.0000 C   0  0  0  0  0  0  0  0  0  0  0  0
    2.6378    0.6979    0.0000 C   0  0  0  0  0  0  0  0  0  0  0  0
    1.9233    1.1104    0.0000 C   0  0  0  0  0  0  0  0  0  0  0  0
    1.1387    0.8555    0.0000 N   0  0  0  0  0  0  0  0  0  0  0  0
    0.6538    1.5229    0.0000 C   0  0  0  0  0  0  0  0  0  0  0  0
    1.1387    2.1904    0.0000 S   0  0  0  0  0  0  0  0  0  0  0  0
    1.9233    1.9354    0.0000 C   0  0  0  0  0  0  0  0  0  0  0  0
    2.6378    2.3479    0.0000 C   0  0  0  0  0  0  0  0  0  0  0  0
  1  2  1  0  0  0  0
  2  3  2  0  0  0  0
  2  4  1  0  0  0  0
  4  5  1  0  0  0  0
  5  6  2  0  0  0  0
  6  7  1  0  0  0  0
  7  8  2  0  0  0  0
  8  9  1  0  0  0  0
  9 10  2  0  0  0  0
 10 11  1  0  0  0  0
 11 12  1  0  0  0  0
  8 12  1  0  0  0  0
 12 13  2  0  0  0  0
  5 13  1  0  0  0  0
M  END
>  <Catalog ID>
Z1258981483

>  <PlateID>
1198308-R-SPFL-03

>  <Well>
G11

>  <MW (desalted)>
193.222

>  <ClogP>
1.352

>  <HBD>
1

>  <TPSA>
50.190

>  <RotBonds>
2

$$$$

            

 10 10  0  0  0  0            999 V2000
    0.5678    2.7643    0.0000 F   0  0  0  0  0  0  0  0  0  0  0  0
    0.5678    1.9393    0.0000 C   0  0  0  0  0  0  0  0  0  0  0  0
   -0.2572    1.9393    0.0000 F   0  0  0  0  0  0  0  0  0  0  0  0
    1.3928    1.9393    0.0000 F   0  0  0  0  0  0  0  0  0  0  0  0
    0.5678    1.1143    0.0000 C   0  0  0  0  0  0  0  0  0  0  0  0
    1.2352    0.6294    0.0000 C   0  0  0  0  0  0  0  0  0  0  0  0
    0.9803   -0.1553    0.0000 N   0  0  0  0  0  0  0  0  0  0  0  0
    0.1553   -0.1553    0.0000 C   0  0  0  0  0  0  0  0  0  0  0  0
   -0.3297   -0.8227    0.0000 O   0  0  0  0  0  0  0  0  0  0  0  0
   -0.0997    0.6294    0.0000 C   0  0  0  0  0  0  0  0  0  0  0  0
  1  2  1  0  0  0  0
  2  3  1  0  0  0  0
  2  4  1  0  0  0  0
  2  5  1  0  0  0  0
  5  6  1  0  0  0  0
  6  7  1  0  0  0  0
  7  8  1  0  0  0  0
  8  9  2  0  0  0  0
  8 10  1  0  0  0  0
  5 10  1  0  0  0  0
M  END
>  <Catalog ID>
Z1486010820

>  <PlateID>
1198308-R-SPFL-03

>  <Well>
H02

>  <MW (desalted)>
153.102

>  <ClogP>
-0.480

>  <HBD>
1

>  <TPSA>
29.100

>  <RotBonds>
1

$$$$

            

 11 12  0  0  0  0            999 V2000
    4.0668    3.1729    0.0000 O   0  0  0  0  0  0  0  0  0  0  0  0
    4.0668    2.3479    0.0000 C   0  0  0  0  0  0  0  0  0  0  0  0
    3.3523    1.9354    0.0000 C   0  0  0  0  0  0  0  0  0  0  0  0
    3.3523    1.1104    0.0000 C   0  0  0  0  0  0  0  0  0  0  0  0
    2.6378    0.6979    0.0000 C   0  0  0  0  0  0  0  0  0  0  0  0
    1.9233    1.1104    0.0000 C   0  0  0  0  0  0  0  0  0  0  0  0
    1.1387    0.8555    0.0000 O   0  0  0  0  0  0  0  0  0  0  0  0
    0.6538    1.5229    0.0000 C   0  0  0  0  0  0  0  0  0  0  0  0
    1.1387    2.1904    0.0000 C   0  0  0  0  0  0  0  0  0  0  0  0
    1.9233    1.9354    0.0000 C   0  0  0  0  0  0  0  0  0  0  0  0
    2.6378    2.3479    0.0000 C   0  0  0  0  0  0  0  0  0  0  0  0
  1  2  1  0  0  0  0
  2  3  1  0  0  0  0
  3  4  2  0  0  0  0
  4  5  1  0  0  0  0
  5  6  2  0  0  0  0
  6  7  1  0  0  0  0
  7  8  1  0  0  0  0
  8  9  2  0  0  0  0
  9 10  1  0  0  0  0
  6 10  1  0  0  0  0
 10 11  2  0  0  0  0
  3 11  1  0  0  0  0
M  END
>  <Catalog ID>
Z1201622887

>  <PlateID>
1198308-R-SPFL-03

>  <Well>
H03

>  <MW (desalted)>
148.159

>  <ClogP>
1.664

>  <HBD>
1

>  <TPSA>
33.370

>  <RotBonds>
1

$$$$

            

 10 10  0  0  0  0            999 V2000
    0.0000    3.3000    0.0000 O   0  0  0  0  0  0  0  0  0  0  0  0
    0.0000    2.4750    0.0000 C   0  0  0  0  0  0  0  0  0  0  0  0
   -0.7145    2.0625    0.0000 O   0  0  0  0  0  0  0  0  0  0  0  0
    0.7145    2.0625    0.0000 C   0  0  0  0  0  0  0  0  0  0  0  0
    0.7145    1.2375    0.0000 C   0  0  0  0  0  0  0  0  0  0  0  0
    1.4289    0.8250    0.0000 C   0  0  0  0  0  0  0  0  0  0  0  0
    1.4289   -0.0000    0.0000 C   0  0  0  0  0  0  0  0  0  0  0  0
    0.7145   -0.4125    0.0000 O   0  0  0  0  0  0  0  0  0  0  0  0
    0.0000    0.0000    0.0000 C   0  0  0  0  0  0  0  0  0  0  0  0
    0.0000    0.8250    0.0000 C   0  0  0  0  0  0  0  0  0  0  0  0
  1  2  1  0  0  0  0
  2  3  2  0  0  0  0
  2  4  1  0  0  0  0
  4  5  1  0  0  0  0
  5  6  1  0  0  0  0
  6  7  1  0  0  0  0
  7  8  1  0  0  0  0
  8  9  1  0  0  0  0
  9 10  1  0  0  0  0
  5 10  1  0  0  0  0
M  END
>  <Catalog ID>
Z440605396

>  <PlateID>
1198308-R-SPFL-03

>  <Well>
H04

>  <MW (desalted)>
144.168

>  <ClogP>
0.057

>  <HBD>
1

>  <TPSA>
46.530

>  <RotBonds>
2

$$$$

            

 14 13  0  0  0  0            999 V2000
    0.0000    0.0000    0.0000 Cl  0  0  0  0  0  0  0  0  0  0  0  0
    2.0036    0.0000    0.0000 Cl  0  0  0  0  0  0  0  0  0  0  0  0
    2.2276   -1.6500    0.0000 C   0  0  0  0  0  0  0  0  0  0  0  0
    1.5131   -2.0625    0.0000 C   0  0  0  0  0  0  0  0  0  0  0  0
    1.5131   -2.8875    0.0000 C   0  0  0  0  0  0  0  0  0  0  0  0
    0.7986   -3.3000    0.0000 C   0  0  0  0  0  0  0  0  0  0  0  0
    0.0842   -2.8875    0.0000 C   0  0  0  0  0  0  0  0  0  0  0  0
   -0.7004   -3.1424    0.0000 N   0  0  0  0  0  0  0  0  0  0  0  0
   -1.1854   -2.4750    0.0000 C   0  0  0  0  0  0  0  0  0  0  0  0
   -2.0104   -2.4750    0.0000 C   0  0  0  0  0  0  0  0  0  0  0  0
   -2.4229   -3.1895    0.0000 N   0  0  0  0  0  0  0  0  0  0  0  0
   -0.7004   -1.8076    0.0000 C   0  0  0  0  0  0  0  0  0  0  0  0
    0.0842   -2.0625    0.0000 N   0  0  0  0  0  0  0  0  0  0  0  0
    0.7986   -1.6500    0.0000 C   0  0  0  0  0  0  0  0  0  0  0  0
  3  4  1  0  0  0  0
  4  5  1  0  0  0  0
  5  6  2  0  0  0  0
  6  7  1  0  0  0  0
  7  8  2  0  0  0  0
  8  9  1  0  0  0  0
  9 10  1  0  0  0  0
 10 11  1  0  0  0  0
  9 12  2  0  0  0  0
 12 13  1  0  0  0  0
  7 13  1  0  0  0  0
 13 14  1  0  0  0  0
  4 14  2  0  0  0  0
M  END
>  <Catalog ID>
Z2094415207

>  <PlateID>
1198308-R-SPFL-03

>  <Well>
H05

>  <MW (desalted)>
161.204

>  <ClogP>
0.857

>  <HBD>
1

>  <TPSA>
43.320

>  <RotBonds>
1

$$$$

            

 12 10  0  0  0  0            999 V2000
    0.0000    0.0000    0.0000 Cl  0  0  0  0  0  0  0  0  0  0  0  0
    2.0036    0.0000    0.0000 Cl  0  0  0  0  0  0  0  0  0  0  0  0
   -0.5716   -1.6500    0.0000 N   0  0  0  0  0  0  0  0  0  0  0  0
   -0.5716   -2.4750    0.0000 C   0  0  0  0  0  0  0  0  0  0  0  0
    0.1429   -2.8875    0.0000 C   0  0  0  0  0  0  0  0  0  0  0  0
    0.1429   -3.7125    0.0000 C   0  0  0  0  0  0  0  0  0  0  0  0
    0.8574   -4.1250    0.0000 C   0  0  0  0  0  0  0  0  0  0  0  0
    0.8574   -4.9500    0.0000 C   0  0  0  0  0  0  0  0  0  0  0  0
    0.1429   -5.3625    0.0000 C   0  0  0  0  0  0  0  0  0  0  0  0
    0.1429   -6.1875    0.0000 F   0  0  0  0  0  0  0  0  0  0  0  0
   -0.5716   -4.9500    0.0000 C   0  0  0  0  0  0  0  0  0  0  0  0
   -0.5716   -4.1250    0.0000 N   0  0  0  0  0  0  0  0  0  0  0  0
  3  4  1  0  0  0  0
  4  5  1  0  0  0  0
  5  6  1  0  0  0  0
  6  7  2  0  0  0  0
  7  8  1  0  0  0  0
  8  9  2  0  0  0  0
  9 10  1  0  0  0  0
  9 11  1  0  0  0  0
 11 12  2  0  0  0  0
  6 12  1  0  0  0  0
M  END
>  <Catalog ID>
Z2238508662

>  <PlateID>
1198308-R-SPFL-03

>  <Well>
H06

>  <MW (desalted)>
140.158

>  <ClogP>
0.163

>  <HBD>
1

>  <TPSA>
38.910

>  <RotBonds>
2

$$$$

            

 11 11  0  0  0  0            999 V2000
    0.5678    1.9393    0.0000 C   0  0  0  0  0  0  0  0  0  0  0  0
    0.5678    1.1143    0.0000 N   0  0  0  0  0  0  0  0  0  0  0  0
    1.2352    0.6294    0.0000 N   0  0  0  0  0  0  0  0  0  0  0  0
    0.9803   -0.1553    0.0000 C   0  0  0  0  0  0  0  0  0  0  0  0
    0.1553   -0.1553    0.0000 C   0  0  0  0  0  0  0  0  0  0  0  0
   -0.0997    0.6294    0.0000 C   0  0  0  0  0  0  0  0  0  0  0  0
   -0.8843    0.8843    0.0000 N   0  0  0  0  0  0  0  0  0  0  0  0
    1.4652   -0.8227    0.0000 C   0  0  0  0  0  0  0  0  0  0  0  0
    1.9501   -1.4901    0.0000 F   0  0  0  0  0  0  0  0  0  0  0  0
    0.7977   -1.3076    0.0000 F   0  0  0  0  0  0  0  0  0  0  0  0
    2.1326   -0.3378    0.0000 F   0  0  0  0  0  0  0  0  0  0  0  0
  1  2  1  0  0  0  0
  2  3  1  0  0  0  0
  3  4  2  0  0  0  0
  4  5  1  0  0  0  0
  5  6  2  0  0  0  0
  2  6  1  0  0  0  0
  6  7  1  0  0  0  0
  4  8  1  0  0  0  0
  8  9  1  0  0  0  0
  8 10  1  0  0  0  0
  8 11  1  0  0  0  0
M  END
>  <Catalog ID>
Z385401380

>  <PlateID>
1198308-R-SPFL-03

>  <Well>
H07

>  <MW (desalted)>
165.116

>  <ClogP>
0.606

>  <HBD>
1

>  <TPSA>
43.840

>  <RotBonds>
1

$$$$

            

 11 11  0  0  0  0            999 V2000
    0.7145    2.0625    0.0000 N   0  0  0  0  0  0  0  0  0  0  0  0
    0.7145    1.2375    0.0000 C   0  0  0  0  0  0  0  0  0  0  0  0
    1.4289    0.8250    0.0000 C   0  0  0  0  0  0  0  0  0  0  0  0
    1.4289   -0.0000    0.0000 C   0  0  0  0  0  0  0  0  0  0  0  0
    0.7145   -0.4125    0.0000 C   0  0  0  0  0  0  0  0  0  0  0  0
    0.7145   -1.2375    0.0000 O   0  0  0  0  0  0  0  0  0  0  0  0
   -0.0000   -1.6500    0.0000 C   0  0  0  0  0  0  0  0  0  0  0  0
   -0.0000   -2.4750    0.0000 F   0  0  0  0  0  0  0  0  0  0  0  0
   -0.7145   -1.2375    0.0000 F   0  0  0  0  0  0  0  0  0  0  0  0
    0.0000    0.0000    0.0000 C   0  0  0  0  0  0  0  0  0  0  0  0
    0.0000    0.8250    0.0000 N   0  0  0  0  0  0  0  0  0  0  0  0
  1  2  1  0  0  0  0
  2  3  2  0  0  0  0
  3  4  1  0  0  0  0
  4  5  2  0  0  0  0
  5  6  1  0  0  0  0
  6  7  1  0  0  0  0
  7  8  1  0  0  0  0
  7  9  1  0  0  0  0
  5 10  1  0  0  0  0
 10 11  2  0  0  0  0
  2 11  1  0  0  0  0
M  END
>  <Catalog ID>
Z1255492866

>  <PlateID>
1198308-R-SPFL-03

>  <Well>
H08

>  <MW (desalted)>
160.121

>  <ClogP>
1.208

>  <HBD>
1

>  <TPSA>
48.140

>  <RotBonds>
2

$$$$

            

 14 14  0  0  0  0            999 V2000
    0.0000    0.0000    0.0000 Cl  0  0  0  0  0  0  0  0  0  0  0  0
    2.3571   -1.5231    0.0000 N   0  0  0  0  0  0  0  0  0  0  0  0
    2.3571   -0.6981    0.0000 C   0  0  0  0  0  0  0  0  0  0  0  0
    3.0716   -0.2856    0.0000 C   0  0  0  0  0  0  0  0  0  0  0  0
    3.0716    0.5394    0.0000 C   0  0  0  0  0  0  0  0  0  0  0  0
    3.7861    0.9519    0.0000 C   0  0  0  0  0  0  0  0  0  0  0  0
    4.5006    0.5394    0.0000 C   0  0  0  0  0  0  0  0  0  0  0  0
    5.2150    0.9519    0.0000 C   0  0  0  0  0  0  0  0  0  0  0  0
    5.9295    0.5394    0.0000 C   0  0  0  0  0  0  0  0  0  0  0  0
    6.6440    0.9519    0.0000 F   0  0  0  0  0  0  0  0  0  0  0  0
    5.9295   -0.2856    0.0000 C   0  0  0  0  0  0  0  0  0  0  0  0
    5.2150   -0.6981    0.0000 C   0  0  0  0  0  0  0  0  0  0  0  0
    4.5006   -0.2856    0.0000 C   0  0  0  0  0  0  0  0  0  0  0  0
    3.7861   -0.6981    0.0000 O   0  0  0  0  0  0  0  0  0  0  0  0
  2  3  1  0  0  0  0
  3  4  1  0  0  0  0
  4  5  1  0  0  0  0
  5  6  1  0  0  0  0
  6  7  1  0  0  0  0
  7  8  2  0  0  0  0
  8  9  1  0  0  0  0
  9 10  1  0  0  0  0
  9 11  2  0  0  0  0
 11 12  1  0  0  0  0
 12 13  2  0  0  0  0
  7 13  1  0  0  0  0
 13 14  1  0  0  0  0
  4 14  1  0  0  0  0
M  END
>  <Catalog ID>
Z2519151301

>  <PlateID>
1198308-R-SPFL-03

>  <Well>
H09

>  <MW (desalted)>
181.207

>  <ClogP>
2.015

>  <HBD>
1

>  <TPSA>
35.250

>  <RotBonds>
1

$$$$

            

 12 13  0  0  0  0            999 V2000
    0.8838   -2.1500    0.0000 C   0  0  0  0  0  0  0  0  0  0  0  0
    1.1387   -1.3654    0.0000 N   0  0  0  0  0  0  0  0  0  0  0  0
    0.6538   -0.6979    0.0000 C   0  0  0  0  0  0  0  0  0  0  0  0
   -0.1712   -0.6979    0.0000 N   0  0  0  0  0  0  0  0  0  0  0  0
    1.1387   -0.0305    0.0000 N   0  0  0  0  0  0  0  0  0  0  0  0
    1.9233   -0.2854    0.0000 C   0  0  0  0  0  0  0  0  0  0  0  0
    2.6378    0.1271    0.0000 C   0  0  0  0  0  0  0  0  0  0  0  0
    3.3523   -0.2854    0.0000 C   0  0  0  0  0  0  0  0  0  0  0  0
    4.0668    0.1271    0.0000 Cl  0  0  0  0  0  0  0  0  0  0  0  0
    3.3523   -1.1104    0.0000 C   0  0  0  0  0  0  0  0  0  0  0  0
    2.6378   -1.5229    0.0000 C   0  0  0  0  0  0  0  0  0  0  0  0
    1.9233   -1.1104    0.0000 C   0  0  0  0  0  0  0  0  0  0  0  0
  1  2  1  0  0  0  0
  2  3  1  0  0  0  0
  3  4  1  0  0  0  0
  3  5  2  0  0  0  0
  5  6  1  0  0  0  0
  6  7  2  0  0  0  0
  7  8  1  0  0  0  0
  8  9  1  0  0  0  0
  8 10  2  0  0  0  0
 10 11  1  0  0  0  0
 11 12  2  0  0  0  0
  2 12  1  0  0  0  0
  6 12  1  0  0  0  0
M  END
>  <Catalog ID>
Z234896367

>  <PlateID>
1198308-R-SPFL-03

>  <Well>
H10

>  <MW (desalted)>
181.622

>  <ClogP>
2.043

>  <HBD>
1

>  <TPSA>
43.840

>  <RotBonds>
0

$$$$

            

 14 13  0  0  0  0            999 V2000
    0.0000    0.0000    0.0000 Cl  0  0  0  0  0  0  0  0  0  0  0  0
    2.0036    0.0000    0.0000 Cl  0  0  0  0  0  0  0  0  0  0  0  0
   -1.2503   -4.5375    0.0000 N   0  0  0  0  0  0  0  0  0  0  0  0
   -0.5359   -4.1250    0.0000 C   0  0  0  0  0  0  0  0  0  0  0  0
   -0.5359   -3.3000    0.0000 C   0  0  0  0  0  0  0  0  0  0  0  0
   -1.2503   -2.8875    0.0000 C   0  0  0  0  0  0  0  0  0  0  0  0
   -1.2503   -2.0625    0.0000 C   0  0  0  0  0  0  0  0  0  0  0  0
   -0.5359   -1.6500    0.0000 N   0  0  0  0  0  0  0  0  0  0  0  0
    0.1786   -2.0625    0.0000 C   0  0  0  0  0  0  0  0  0  0  0  0
    0.8931   -1.6500    0.0000 C   0  0  0  0  0  0  0  0  0  0  0  0
    1.6076   -2.0625    0.0000 C   0  0  0  0  0  0  0  0  0  0  0  0
    1.6076   -2.8875    0.0000 C   0  0  0  0  0  0  0  0  0  0  0  0
    0.8931   -3.3000    0.0000 C   0  0  0  0  0  0  0  0  0  0  0  0
    0.1786   -2.8875    0.0000 C   0  0  0  0  0  0  0  0  0  0  0  0
  3  4  1  0  0  0  0
  4  5  1  0  0  0  0
  5  6  2  0  0  0  0
  6  7  1  0  0  0  0
  7  8  2  0  0  0  0
  8  9  1  0  0  0  0
  9 10  1  0  0  0  0
 10 11  1  0  0  0  0
 11 12  1  0  0  0  0
 12 13  1  0  0  0  0
 13 14  1  0  0  0  0
  5 14  1  0  0  0  0
  9 14  2  0  0  0  0
M  END
>  <Catalog ID>
Z3305926881

>  <PlateID>
1198308-R-SPFL-03

>  <Well>
H11

>  <MW (desalted)>
162.232

>  <ClogP>
1.169

>  <HBD>
1

>  <TPSA>
38.910

>  <RotBonds>
1

$$$$

            

 11 12  0  0  0  0            999 V2000
    1.2564   -0.1802    0.0000 N   0  0  0  0  0  0  0  0  0  0  0  0
    1.2564   -1.0052    0.0000 C   0  0  0  0  0  0  0  0  0  0  0  0
    1.9239   -1.4901    0.0000 C   0  0  0  0  0  0  0  0  0  0  0  0
    1.6689   -2.2748    0.0000 C   0  0  0  0  0  0  0  0  0  0  0  0
    0.8439   -2.2748    0.0000 N   0  0  0  0  0  0  0  0  0  0  0  0
    0.5890   -1.4901    0.0000 N   0  0  0  0  0  0  0  0  0  0  0  0
   -0.1956   -1.2352    0.0000 C   0  0  0  0  0  0  0  0  0  0  0  0
   -0.8631   -1.7201    0.0000 C   0  0  0  0  0  0  0  0  0  0  0  0
   -1.5305   -1.2352    0.0000 C   0  0  0  0  0  0  0  0  0  0  0  0
   -1.2756   -0.4506    0.0000 C   0  0  0  0  0  0  0  0  0  0  0  0
   -0.4506   -0.4506    0.0000 C   0  0  0  0  0  0  0  0  0  0  0  0
  1  2  1  0  0  0  0
  2  3  2  0  0  0  0
  3  4  1  0  0  0  0
  4  5  2  0  0  0  0
  5  6  1  0  0  0  0
  2  6  1  0  0  0  0
  6  7  1  0  0  0  0
  7  8  1  0  0  0  0
  8  9  1  0  0  0  0
  9 10  1  0  0  0  0
 10 11  1  0  0  0  0
  7 11  1  0  0  0  0
M  END
>  <Catalog ID>
Z56347292

>  <PlateID>
1198308-R-SPFL-04

>  <Well>
A02

>  <MW (desalted)>
151.209

>  <ClogP>
0.944

>  <HBD>
1

>  <TPSA>
43.840

>  <RotBonds>
1

$$$$

            

 11 11  0  0  0  0            999 V2000
    1.2822    2.3518    0.0000 O   0  0  0  0  0  0  0  0  0  0  0  0
    0.5678    1.9393    0.0000 C   0  0  0  0  0  0  0  0  0  0  0  0
   -0.1467    2.3518    0.0000 O   0  0  0  0  0  0  0  0  0  0  0  0
    0.5678    1.1143    0.0000 C   0  0  0  0  0  0  0  0  0  0  0  0
    1.2352    0.6294    0.0000 C   0  0  0  0  0  0  0  0  0  0  0  0
    0.9803   -0.1553    0.0000 N   0  0  0  0  0  0  0  0  0  0  0  0
    0.1553   -0.1553    0.0000 N   0  0  0  0  0  0  0  0  0  0  0  0
   -0.0997    0.6294    0.0000 C   0  0  0  0  0  0  0  0  0  0  0  0
   -0.3297   -0.8227    0.0000 C   0  0  0  0  0  0  0  0  0  0  0  0
    0.0059   -1.5764    0.0000 F   0  0  0  0  0  0  0  0  0  0  0  0
   -1.1501   -0.7365    0.0000 F   0  0  0  0  0  0  0  0  0  0  0  0
  1  2  1  0  0  0  0
  2  3  2  0  0  0  0
  2  4  1  0  0  0  0
  4  5  1  0  0  0  0
  5  6  2  0  0  0  0
  6  7  1  0  0  0  0
  7  8  1  0  0  0  0
  4  8  2  0  0  0  0
  7  9  1  0  0  0  0
  9 10  1  0  0  0  0
  9 11  1  0  0  0  0
M  END
>  <Catalog ID>
Z1041196404

>  <PlateID>
1198308-R-SPFL-04

>  <Well>
A03

>  <MW (desalted)>
162.094

>  <ClogP>
0.557

>  <HBD>
1

>  <TPSA>
55.120

>  <RotBonds>
2

$$$$

            

 14 14  0  0  0  0            999 V2000
    0.0000    0.0000    0.0000 Cl  0  0  0  0  0  0  0  0  0  0  0  0
    2.3571    2.2169    0.0000 C   0  0  0  0  0  0  0  0  0  0  0  0
    3.0716    1.8044    0.0000 C   0  0  0  0  0  0  0  0  0  0  0  0
    3.7861    2.2169    0.0000 N   0  0  0  0  0  0  0  0  0  0  0  0
    3.0716    0.9794    0.0000 C   0  0  0  0  0  0  0  0  0  0  0  0
    3.7391    0.4945    0.0000 N   0  0  0  0  0  0  0  0  0  0  0  0
    3.4841   -0.2901    0.0000 C   0  0  0  0  0  0  0  0  0  0  0  0
    2.6591   -0.2901    0.0000 N   0  0  0  0  0  0  0  0  0  0  0  0
    2.4042    0.4945    0.0000 O   0  0  0  0  0  0  0  0  0  0  0  0
    3.9690   -0.9575    0.0000 C   0  0  0  0  0  0  0  0  0  0  0  0
    4.7940   -0.9575    0.0000 C   0  0  0  0  0  0  0  0  0  0  0  0
    5.0490   -1.7422    0.0000 C   0  0  0  0  0  0  0  0  0  0  0  0
    4.3815   -2.2271    0.0000 C   0  0  0  0  0  0  0  0  0  0  0  0
    3.7141   -1.7422    0.0000 C   0  0  0  0  0  0  0  0  0  0  0  0
  2  3  1  0  0  0  0
  3  4  1  0  0  0  0
  3  5  1  0  0  0  0
  5  6  2  0  0  0  0
  6  7  1  0  0  0  0
  7  8  2  0  0  0  0
  8  9  1  0  0  0  0
  5  9  1  0  0  0  0
  7 10  1  0  0  0  0
 10 11  1  0  0  0  0
 11 12  1  0  0  0  0
 12 13  1  0  0  0  0
 13 14  1  0  0  0  0
 10 14  1  0  0  0  0
M  END
>  <Catalog ID>
Z1270559101

>  <PlateID>
1198308-R-SPFL-04

>  <Well>
A04

>  <MW (desalted)>
181.235

>  <ClogP>
0.586

>  <HBD>
1

>  <TPSA>
64.940

>  <RotBonds>
2

$$$$

            

 14 15  0  0  0  0            999 V2000
    2.1434   -0.4125    0.0000 F   0  0  0  0  0  0  0  0  0  0  0  0
    2.1434   -1.2375    0.0000 C   0  0  0  0  0  0  0  0  0  0  0  0
    2.8579   -1.6500    0.0000 C   0  0  0  0  0  0  0  0  0  0  0  0
    2.8579   -2.4750    0.0000 C   0  0  0  0  0  0  0  0  0  0  0  0
    2.1434   -2.8875    0.0000 C   0  0  0  0  0  0  0  0  0  0  0  0
    1.4289   -2.4750    0.0000 N   0  0  0  0  0  0  0  0  0  0  0  0
    1.4289   -1.6500    0.0000 C   0  0  0  0  0  0  0  0  0  0  0  0
    0.7145   -1.2375    0.0000 O   0  0  0  0  0  0  0  0  0  0  0  0
    0.7145   -0.4125    0.0000 C   0  0  0  0  0  0  0  0  0  0  0  0
    0.0000    0.0000    0.0000 C   0  0  0  0  0  0  0  0  0  0  0  0
    0.0000    0.8250    0.0000 C   0  0  0  0  0  0  0  0  0  0  0  0
    0.7145    1.2375    0.0000 C   0  0  0  0  0  0  0  0  0  0  0  0
    1.4289    0.8250    0.0000 N   0  0  0  0  0  0  0  0  0  0  0  0
    1.4289    0.0000    0.0000 C   0  0  0  0  0  0  0  0  0  0  0  0
  1  2  1  0  0  0  0
  2  3  2  0  0  0  0
  3  4  1  0  0  0  0
  4  5  2  0  0  0  0
  5  6  1  0  0  0  0
  6  7  2  0  0  0  0
  2  7  1  0  0  0  0
  7  8  1  0  0  0  0
  8  9  1  0  0  0  0
  9 10  1  0  0  0  0
 10 11  1  0  0  0  0
 11 12  1  0  0  0  0
 12 13  1  0  0  0  0
 13 14  1  0  0  0  0
  9 14  1  0  0  0  0
M  END
>  <Catalog ID>
Z997725000

>  <PlateID>
1198308-R-SPFL-04

>  <Well>
A05

>  <MW (desalted)>
196.221

>  <ClogP>
1.608

>  <HBD>
1

>  <TPSA>
34.150

>  <RotBonds>
2

$$$$

            

 14 15  0  0  0  0            999 V2000
    3.4990    0.2854    0.0000 F   0  0  0  0  0  0  0  0  0  0  0  0
    2.7845    0.6979    0.0000 C   0  0  0  0  0  0  0  0  0  0  0  0
    3.1970    1.4124    0.0000 F   0  0  0  0  0  0  0  0  0  0  0  0
    2.3720   -0.0165    0.0000 F   0  0  0  0  0  0  0  0  0  0  0  0
    2.0701    1.1104    0.0000 C   0  0  0  0  0  0  0  0  0  0  0  0
    1.3556    0.6979    0.0000 N   0  0  0  0  0  0  0  0  0  0  0  0
    0.6411    1.1104    0.0000 C   0  0  0  0  0  0  0  0  0  0  0  0
   -0.1435    0.8555    0.0000 N   0  0  0  0  0  0  0  0  0  0  0  0
   -0.6284    1.5229    0.0000 C   0  0  0  0  0  0  0  0  0  0  0  0
   -0.1435    2.1904    0.0000 N   0  0  0  0  0  0  0  0  0  0  0  0
    0.6411    1.9354    0.0000 C   0  0  0  0  0  0  0  0  0  0  0  0
    1.3556    2.3479    0.0000 C   0  0  0  0  0  0  0  0  0  0  0  0
    1.3556    3.1729    0.0000 O   0  0  0  0  0  0  0  0  0  0  0  0
    2.0701    1.9354    0.0000 N   0  0  0  0  0  0  0  0  0  0  0  0
  1  2  1  0  0  0  0
  2  3  1  0  0  0  0
  2  4  1  0  0  0  0
  2  5  1  0  0  0  0
  5  6  2  0  0  0  0
  6  7  1  0  0  0  0
  7  8  1  0  0  0  0
  8  9  1  0  0  0  0
  9 10  2  0  0  0  0
 10 11  1  0  0  0  0
  7 11  2  0  0  0  0
 11 12  1  0  0  0  0
 12 13  2  0  0  0  0
 12 14  1  0  0  0  0
  5 14  1  0  0  0  0
M  END
>  <Catalog ID>
Z1269130394

>  <PlateID>
1198308-R-SPFL-04

>  <Well>
A06

>  <MW (desalted)>
204.109

>  <ClogP>
-0.197

>  <HBD>
2

>  <TPSA>
70.140

>  <RotBonds>
1

$$$$

            

 13 12  0  0  0  0            999 V2000
    0.0000    0.0000    0.0000 Cl  0  0  0  0  0  0  0  0  0  0  0  0
    4.7190    1.5749    0.0000 C   0  0  0  0  0  0  0  0  0  0  0  0
    4.0045    1.1624    0.0000 C   0  0  0  0  0  0  0  0  0  0  0  0
    4.0045    0.3374    0.0000 N   0  0  0  0  0  0  0  0  0  0  0  0
    4.6720   -0.1476    0.0000 N   0  0  0  0  0  0  0  0  0  0  0  0
    4.4170   -0.9322    0.0000 C   0  0  0  0  0  0  0  0  0  0  0  0
    3.5920   -0.9322    0.0000 C   0  0  0  0  0  0  0  0  0  0  0  0
    3.1071   -1.5996    0.0000 N   0  0  0  0  0  0  0  0  0  0  0  0
    3.3371   -0.1476    0.0000 C   0  0  0  0  0  0  0  0  0  0  0  0
    2.5525    0.1074    0.0000 C   0  0  0  0  0  0  0  0  0  0  0  0
    1.7679    0.3623    0.0000 F   0  0  0  0  0  0  0  0  0  0  0  0
    2.8074    0.8920    0.0000 F   0  0  0  0  0  0  0  0  0  0  0  0
    2.2975   -0.6772    0.0000 F   0  0  0  0  0  0  0  0  0  0  0  0
  2  3  1  0  0  0  0
  3  4  1  0  0  0  0
  4  5  1  0  0  0  0
  5  6  2  0  0  0  0
  6  7  1  0  0  0  0
  7  8  1  0  0  0  0
  7  9  2  0  0  0  0
  4  9  1  0  0  0  0
  9 10  1  0  0  0  0
 10 11  1  0  0  0  0
 10 12  1  0  0  0  0
 10 13  1  0  0  0  0
M  END
>  <Catalog ID>
Z1971703351

>  <PlateID>
1198308-R-SPFL-04

>  <Well>
A07

>  <MW (desalted)>
179.143

>  <ClogP>
1.135

>  <HBD>
1

>  <TPSA>
43.840

>  <RotBonds>
2

$$$$

            

 13 13  0  0  0  0            999 V2000
    0.7145    2.8875    0.0000 C   0  0  0  0  0  0  0  0  0  0  0  0
    0.7145    2.0625    0.0000 C   0  0  0  0  0  0  0  0  0  0  0  0
   -0.1105    2.0625    0.0000 F   0  0  0  0  0  0  0  0  0  0  0  0
    1.5395    2.0625    0.0000 F   0  0  0  0  0  0  0  0  0  0  0  0
    0.7145    1.2375    0.0000 C   0  0  0  0  0  0  0  0  0  0  0  0
    1.4289    0.8250    0.0000 C   0  0  0  0  0  0  0  0  0  0  0  0
    1.4289   -0.0000    0.0000 C   0  0  0  0  0  0  0  0  0  0  0  0
    0.7145   -0.4125    0.0000 C   0  0  0  0  0  0  0  0  0  0  0  0
    0.0000    0.0000    0.0000 C   0  0  0  0  0  0  0  0  0  0  0  0
    0.0000    0.8250    0.0000 N   0  0  0  0  0  0  0  0  0  0  0  0
   -0.7145   -0.4125    0.0000 C   0  0  0  0  0  0  0  0  0  0  0  0
   -0.7145   -1.2375    0.0000 O   0  0  0  0  0  0  0  0  0  0  0  0
   -1.4289    0.0000    0.0000 O   0  0  0  0  0  0  0  0  0  0  0  0
  1  2  1  0  0  0  0
  2  3  1  0  0  0  0
  2  4  1  0  0  0  0
  2  5  1  0  0  0  0
  5  6  2  0  0  0  0
  6  7  1  0  0  0  0
  7  8  2  0  0  0  0
  8  9  1  0  0  0  0
  9 10  2  0  0  0  0
  5 10  1  0  0  0  0
  9 11  1  0  0  0  0
 11 12  2  0  0  0  0
 11 13  1  0  0  0  0
M  END
>  <Catalog ID>
Z1255505039

>  <PlateID>
1198308-R-SPFL-04

>  <Well>
A08

>  <MW (desalted)>
187.143

>  <ClogP>
1.723

>  <HBD>
1

>  <TPSA>
50.190

>  <RotBonds>
2

$$$$

            

 12 12  0  0  0  0            999 V2000
   -0.1467    2.3518    0.0000 O   0  0  0  0  0  0  0  0  0  0  0  0
    0.5678    1.9393    0.0000 C   0  0  0  0  0  0  0  0  0  0  0  0
    1.2822    2.3518    0.0000 O   0  0  0  0  0  0  0  0  0  0  0  0
    0.5678    1.1143    0.0000 C   0  0  0  0  0  0  0  0  0  0  0  0
    1.2352    0.6294    0.0000 C   0  0  0  0  0  0  0  0  0  0  0  0
    0.9803   -0.1553    0.0000 C   0  0  0  0  0  0  0  0  0  0  0  0
    0.1553   -0.1553    0.0000 N   0  0  0  0  0  0  0  0  0  0  0  0
   -0.0997    0.6294    0.0000 N   0  0  0  0  0  0  0  0  0  0  0  0
   -0.8843    0.8843    0.0000 C   0  0  0  0  0  0  0  0  0  0  0  0
   -1.4974    0.3323    0.0000 C   0  0  0  0  0  0  0  0  0  0  0  0
   -1.3259   -0.4747    0.0000 F   0  0  0  0  0  0  0  0  0  0  0  0
   -2.2820    0.5872    0.0000 F   0  0  0  0  0  0  0  0  0  0  0  0
  1  2  1  0  0  0  0
  2  3  2  0  0  0  0
  2  4  1  0  0  0  0
  4  5  2  0  0  0  0
  5  6  1  0  0  0  0
  6  7  2  0  0  0  0
  7  8  1  0  0  0  0
  4  8  1  0  0  0  0
  8  9  1  0  0  0  0
  9 10  1  0  0  0  0
 10 11  1  0  0  0  0
 10 12  1  0  0  0  0
M  END
>  <Catalog ID>
Z1230013382

>  <PlateID>
1198308-R-SPFL-04

>  <Well>
A09

>  <MW (desalted)>
176.121

>  <ClogP>
0.836

>  <HBD>
1

>  <TPSA>
55.120

>  <RotBonds>
3

$$$$

            

 16 16  0  0  0  0            999 V2000
    0.0000    0.0000    0.0000 Cl  0  0  0  0  0  0  0  0  0  0  0  0
    1.8857    1.0589    0.0000 O   0  0  0  0  0  0  0  0  0  0  0  0
    2.6002    1.4714    0.0000 C   0  0  0  0  0  0  0  0  0  0  0  0
    2.6002    2.2964    0.0000 O   0  0  0  0  0  0  0  0  0  0  0  0
    3.3147    1.0589    0.0000 C   0  0  0  0  0  0  0  0  0  0  0  0
    4.0291    1.4714    0.0000 C   0  0  0  0  0  0  0  0  0  0  0  0
    4.7436    1.0589    0.0000 C   0  0  0  0  0  0  0  0  0  0  0  0
    4.7436    0.2339    0.0000 C   0  0  0  0  0  0  0  0  0  0  0  0
    4.0291   -0.1786    0.0000 C   0  0  0  0  0  0  0  0  0  0  0  0
    3.3147    0.2339    0.0000 C   0  0  0  0  0  0  0  0  0  0  0  0
    2.6002   -0.1786    0.0000 C   0  0  0  0  0  0  0  0  0  0  0  0
    2.6002   -1.0036    0.0000 N   0  0  0  0  0  0  0  0  0  0  0  0
    3.2676   -1.4885    0.0000 C   0  0  0  0  0  0  0  0  0  0  0  0
    3.0127   -2.2731    0.0000 C   0  0  0  0  0  0  0  0  0  0  0  0
    2.1877   -2.2731    0.0000 C   0  0  0  0  0  0  0  0  0  0  0  0
    1.9327   -1.4885    0.0000 N   0  0  0  0  0  0  0  0  0  0  0  0
  2  3  1  0  0  0  0
  3  4  2  0  0  0  0
  3  5  1  0  0  0  0
  5  6  2  0  0  0  0
  6  7  1  0  0  0  0
  7  8  2  0  0  0  0
  8  9  1  0  0  0  0
  9 10  2  0  0  0  0
  5 10  1  0  0  0  0
 10 11  1  0  0  0  0
 11 12  1  0  0  0  0
 12 13  1  0  0  0  0
 13 14  2  0  0  0  0
 14 15  1  0  0  0  0
 15 16  2  0  0  0  0
 12 16  1  0  0  0  0
M  END
>  <Catalog ID>
Z1255523425

>  <PlateID>
1198308-R-SPFL-04

>  <Well>
A10

>  <MW (desalted)>
202.209

>  <ClogP>
1.658

>  <HBD>
1

>  <TPSA>
55.120

>  <RotBonds>
3

$$$$

            

 11 12  0  0  0  0            999 V2000
    0.3020   -2.5070    0.0000 C   0  0  0  0  0  0  0  0  0  0  0  0
    0.0470   -1.7224    0.0000 C   0  0  0  0  0  0  0  0  0  0  0  0
    0.7145   -1.2375    0.0000 C   0  0  0  0  0  0  0  0  0  0  0  0
    1.3819   -1.7224    0.0000 N   0  0  0  0  0  0  0  0  0  0  0  0
    1.1270   -2.5070    0.0000 N   0  0  0  0  0  0  0  0  0  0  0  0
    0.7145   -0.4125    0.0000 C   0  0  0  0  0  0  0  0  0  0  0  0
    0.0000    0.0000    0.0000 C   0  0  0  0  0  0  0  0  0  0  0  0
    0.0000    0.8250    0.0000 C   0  0  0  0  0  0  0  0  0  0  0  0
    0.7145    1.2375    0.0000 N   0  0  0  0  0  0  0  0  0  0  0  0
    1.4289    0.8250    0.0000 C   0  0  0  0  0  0  0  0  0  0  0  0
    1.4289    0.0000    0.0000 C   0  0  0  0  0  0  0  0  0  0  0  0
  1  2  1  0  0  0  0
  2  3  2  0  0  0  0
  3  4  1  0  0  0  0
  4  5  1  0  0  0  0
  1  5  2  0  0  0  0
  3  6  1  0  0  0  0
  6  7  2  0  0  0  0
  7  8  1  0  0  0  0
  8  9  2  0  0  0  0
  9 10  1  0  0  0  0
 10 11  2  0  0  0  0
  6 11  1  0  0  0  0
M  END
>  <Catalog ID>
Z1258992467

>  <PlateID>
1198308-R-SPFL-04

>  <Well>
A11

>  <MW (desalted)>
145.161

>  <ClogP>
1.037

>  <HBD>
1

>  <TPSA>
41.570

>  <RotBonds>
1

$$$$

            

 11 12  0  0  0  0            999 V2000
   -0.5837   -1.4124    0.0000 O   0  0  0  0  0  0  0  0  0  0  0  0
   -0.1712   -0.6979    0.0000 C   0  0  0  0  0  0  0  0  0  0  0  0
    0.6538   -0.6979    0.0000 C   0  0  0  0  0  0  0  0  0  0  0  0
    1.1387   -0.0305    0.0000 C   0  0  0  0  0  0  0  0  0  0  0  0
    1.9233   -0.2854    0.0000 C   0  0  0  0  0  0  0  0  0  0  0  0
    2.6378    0.1271    0.0000 C   0  0  0  0  0  0  0  0  0  0  0  0
    3.3523   -0.2854    0.0000 N   0  0  0  0  0  0  0  0  0  0  0  0
    3.3523   -1.1104    0.0000 C   0  0  0  0  0  0  0  0  0  0  0  0
    2.6378   -1.5229    0.0000 C   0  0  0  0  0  0  0  0  0  0  0  0
    1.9233   -1.1104    0.0000 C   0  0  0  0  0  0  0  0  0  0  0  0
    1.1387   -1.3654    0.0000 O   0  0  0  0  0  0  0  0  0  0  0  0
  1  2  1  0  0  0  0
  2  3  1  0  0  0  0
  3  4  2  0  0  0  0
  4  5  1  0  0  0  0
  5  6  2  0  0  0  0
  6  7  1  0  0  0  0
  7  8  2  0  0  0  0
  8  9  1  0  0  0  0
  9 10  2  0  0  0  0
  5 10  1  0  0  0  0
 10 11  1  0  0  0  0
  3 11  1  0  0  0  0
M  END
>  <Catalog ID>
Z1255452234

>  <PlateID>
1198308-R-SPFL-04

>  <Well>
B02

>  <MW (desalted)>
149.147

>  <ClogP>
0.167

>  <HBD>
1

>  <TPSA>
46.260

>  <RotBonds>
1

$$$$

            

 10 11  0  0  0  0            999 V2000
    3.2789    2.0625    0.0000 N   0  0  0  0  0  0  0  0  0  0  0  0
    3.2789    1.2375    0.0000 C   0  0  0  0  0  0  0  0  0  0  0  0
    3.9934    0.8250    0.0000 N   0  0  0  0  0  0  0  0  0  0  0  0
    3.9934    0.0000    0.0000 C   0  0  0  0  0  0  0  0  0  0  0  0
    3.2789   -0.4125    0.0000 N   0  0  0  0  0  0  0  0  0  0  0  0
    2.5645    0.0000    0.0000 C   0  0  0  0  0  0  0  0  0  0  0  0
    1.7798   -0.2549    0.0000 C   0  0  0  0  0  0  0  0  0  0  0  0
    1.2949    0.4125    0.0000 C   0  0  0  0  0  0  0  0  0  0  0  0
    1.7798    1.0799    0.0000 S   0  0  0  0  0  0  0  0  0  0  0  0
    2.5645    0.8250    0.0000 C   0  0  0  0  0  0  0  0  0  0  0  0
  1  2  1  0  0  0  0
  2  3  1  0  0  0  0
  3  4  2  0  0  0  0
  4  5  1  0  0  0  0
  5  6  2  0  0  0  0
  6  7  1  0  0  0  0
  7  8  2  0  0  0  0
  8  9  1  0  0  0  0
  9 10  1  0  0  0  0
  2 10  2  0  0  0  0
  6 10  1  0  0  0  0
M  END
>  <Catalog ID>
Z390143644

>  <PlateID>
1198308-R-SPFL-04

>  <Well>
B03

>  <MW (desalted)>
151.189

>  <ClogP>
1.103

>  <HBD>
1

>  <TPSA>
51.800

>  <RotBonds>
0

$$$$

            

 11 12  0  0  0  0            999 V2000
   -0.1712   -0.6979    0.0000 C   0  0  0  0  0  0  0  0  0  0  0  0
    0.6538   -0.6979    0.0000 C   0  0  0  0  0  0  0  0  0  0  0  0
    1.1387   -0.0305    0.0000 N   0  0  0  0  0  0  0  0  0  0  0  0
    1.9233   -0.2854    0.0000 C   0  0  0  0  0  0  0  0  0  0  0  0
    2.6378    0.1271    0.0000 C   0  0  0  0  0  0  0  0  0  0  0  0
    2.6378    0.9521    0.0000 N   0  0  0  0  0  0  0  0  0  0  0  0
    3.3523   -0.2854    0.0000 C   0  0  0  0  0  0  0  0  0  0  0  0
    3.3523   -1.1104    0.0000 C   0  0  0  0  0  0  0  0  0  0  0  0
    2.6378   -1.5229    0.0000 C   0  0  0  0  0  0  0  0  0  0  0  0
    1.9233   -1.1104    0.0000 N   0  0  0  0  0  0  0  0  0  0  0  0
    1.1387   -1.3654    0.0000 N   0  0  0  0  0  0  0  0  0  0  0  0
  1  2  1  0  0  0  0
  2  3  1  0  0  0  0
  3  4  2  0  0  0  0
  4  5  1  0  0  0  0
  5  6  1  0  0  0  0
  5  7  1  0  0  0  0
  7  8  1  0  0  0  0
  8  9  1  0  0  0  0
  9 10  1  0  0  0  0
  4 10  1  0  0  0  0
 10 11  1  0  0  0  0
  2 11  2  0  0  0  0
M  END
>  <Catalog ID>
Z1266852599

>  <PlateID>
1198308-R-SPFL-04

>  <Well>
B04

>  <MW (desalted)>
152.197

>  <ClogP>
-1.048

>  <HBD>
1

>  <TPSA>
56.730

>  <RotBonds>
0

$$$$

            

 10 10  0  0  0  0            999 V2000
    0.5678    1.9393    0.0000 C   0  0  0  0  0  0  0  0  0  0  0  0
    0.5678    1.1143    0.0000 N   0  0  0  0  0  0  0  0  0  0  0  0
    1.2352    0.6294    0.0000 C   0  0  0  0  0  0  0  0  0  0  0  0
    0.9803   -0.1553    0.0000 C   0  0  0  0  0  0  0  0  0  0  0  0
    1.4652   -0.8227    0.0000 C   0  0  0  0  0  0  0  0  0  0  0  0
    1.1296   -1.5764    0.0000 C   0  0  0  0  0  0  0  0  0  0  0  0
    1.6145   -2.2438    0.0000 O   0  0  0  0  0  0  0  0  0  0  0  0
    0.3091   -1.6626    0.0000 O   0  0  0  0  0  0  0  0  0  0  0  0
    0.1553   -0.1553    0.0000 C   0  0  0  0  0  0  0  0  0  0  0  0
   -0.0997    0.6294    0.0000 N   0  0  0  0  0  0  0  0  0  0  0  0
  1  2  1  0  0  0  0
  2  3  1  0  0  0  0
  3  4  2  0  0  0  0
  4  5  1  0  0  0  0
  5  6  1  0  0  0  0
  6  7  2  0  0  0  0
  6  8  1  0  0  0  0
  4  9  1  0  0  0  0
  9 10  2  0  0  0  0
  2 10  1  0  0  0  0
M  END
>  <Catalog ID>
Z382816606

>  <PlateID>
1198308-R-SPFL-04

>  <Well>
B05

>  <MW (desalted)>
140.140

>  <ClogP>
-0.471

>  <HBD>
1

>  <TPSA>
55.120

>  <RotBonds>
2

$$$$

            

 13 14  0  0  0  0            999 V2000
    0.0000    0.0000    0.0000 O   0  0  0  0  0  0  0  0  0  0  0  0
    0.7145   -0.4125    0.0000 C   0  0  0  0  0  0  0  0  0  0  0  0
    0.7145   -1.2375    0.0000 C   0  0  0  0  0  0  0  0  0  0  0  0
    1.3819   -1.7224    0.0000 N   0  0  0  0  0  0  0  0  0  0  0  0
    1.1270   -2.5070    0.0000 C   0  0  0  0  0  0  0  0  0  0  0  0
    0.3020   -2.5070    0.0000 N   0  0  0  0  0  0  0  0  0  0  0  0
    0.0470   -1.7224    0.0000 O   0  0  0  0  0  0  0  0  0  0  0  0
    1.6119   -3.1745    0.0000 C   0  0  0  0  0  0  0  0  0  0  0  0
    2.4324   -3.0882    0.0000 C   0  0  0  0  0  0  0  0  0  0  0  0
    2.9173   -3.7557    0.0000 C   0  0  0  0  0  0  0  0  0  0  0  0
    2.5817   -4.5094    0.0000 C   0  0  0  0  0  0  0  0  0  0  0  0
    1.7613   -4.5956    0.0000 C   0  0  0  0  0  0  0  0  0  0  0  0
    1.2763   -3.9282    0.0000 C   0  0  0  0  0  0  0  0  0  0  0  0
  1  2  1  0  0  0  0
  2  3  1  0  0  0  0
  3  4  2  0  0  0  0
  4  5  1  0  0  0  0
  5  6  2  0  0  0  0
  6  7  1  0  0  0  0
  3  7  1  0  0  0  0
  5  8  1  0  0  0  0
  8  9  2  0  0  0  0
  9 10  1  0  0  0  0
 10 11  2  0  0  0  0
 11 12  1  0  0  0  0
 12 13  2  0  0  0  0
  8 13  1  0  0  0  0
M  END
>  <Catalog ID>
Z431953126

>  <PlateID>
1198308-R-SPFL-04

>  <Well>
B06

>  <MW (desalted)>
176.172

>  <ClogP>
0.554

>  <HBD>
1

>  <TPSA>
59.150

>  <RotBonds>
2

$$$$

            

 11 12  0  0  0  0            999 V2000
    0.2076   -1.8785    0.0000 O   0  0  0  0  0  0  0  0  0  0  0  0
    1.0146   -1.7070    0.0000 C   0  0  0  0  0  0  0  0  0  0  0  0
    1.5666   -2.3201    0.0000 O   0  0  0  0  0  0  0  0  0  0  0  0
    1.2695   -0.9224    0.0000 C   0  0  0  0  0  0  0  0  0  0  0  0
    0.7846   -0.2549    0.0000 C   0  0  0  0  0  0  0  0  0  0  0  0
    1.2695    0.4125    0.0000 N   0  0  0  0  0  0  0  0  0  0  0  0
    2.0542    0.1576    0.0000 N   0  0  0  0  0  0  0  0  0  0  0  0
    2.8388    0.4125    0.0000 C   0  0  0  0  0  0  0  0  0  0  0  0
    3.3237   -0.2549    0.0000 C   0  0  0  0  0  0  0  0  0  0  0  0
    2.8388   -0.9224    0.0000 S   0  0  0  0  0  0  0  0  0  0  0  0
    2.0542   -0.6674    0.0000 C   0  0  0  0  0  0  0  0  0  0  0  0
  1  2  1  0  0  0  0
  2  3  2  0  0  0  0
  2  4  1  0  0  0  0
  4  5  1  0  0  0  0
  5  6  2  0  0  0  0
  6  7  1  0  0  0  0
  7  8  1  0  0  0  0
  8  9  2  0  0  0  0
  9 10  1  0  0  0  0
 10 11  1  0  0  0  0
  4 11  2  0  0  0  0
  7 11  1  0  0  0  0
M  END
>  <Catalog ID>
Z1504680017

>  <PlateID>
1198308-R-SPFL-04

>  <Well>
B07

>  <MW (desalted)>
168.173

>  <ClogP>
1.141

>  <HBD>
1

>  <TPSA>
54.600

>  <RotBonds>
1

$$$$

            

 12 13  0  0  0  0            999 V2000
    0.2893    5.5559    0.0000 C   0  0  0  0  0  0  0  0  0  0  0  0
    0.7742    4.8884    0.0000 N   0  0  0  0  0  0  0  0  0  0  0  0
    1.5992    4.8884    0.0000 C   0  0  0  0  0  0  0  0  0  0  0  0
    1.8542    4.1038    0.0000 C   0  0  0  0  0  0  0  0  0  0  0  0
    2.6388    3.8489    0.0000 C   0  0  0  0  0  0  0  0  0  0  0  0
    3.2519    4.4009    0.0000 O   0  0  0  0  0  0  0  0  0  0  0  0
    2.8103    3.0419    0.0000 O   0  0  0  0  0  0  0  0  0  0  0  0
    1.1867    3.6189    0.0000 C   0  0  0  0  0  0  0  0  0  0  0  0
    0.5193    4.1038    0.0000 N   0  0  0  0  0  0  0  0  0  0  0  0
    1.1867    2.7939    0.0000 C   0  0  0  0  0  0  0  0  0  0  0  0
    1.5992    2.0794    0.0000 C   0  0  0  0  0  0  0  0  0  0  0  0
    0.7742    2.0794    0.0000 C   0  0  0  0  0  0  0  0  0  0  0  0
  1  2  1  0  0  0  0
  2  3  1  0  0  0  0
  3  4  2  0  0  0  0
  4  5  1  0  0  0  0
  5  6  2  0  0  0  0
  5  7  1  0  0  0  0
  4  8  1  0  0  0  0
  8  9  2  0  0  0  0
  2  9  1  0  0  0  0
  8 10  1  0  0  0  0
 10 11  1  0  0  0  0
 11 12  1  0  0  0  0
 10 12  1  0  0  0  0
M  END
>  <Catalog ID>
Z1198165064

>  <PlateID>
1198308-R-SPFL-04

>  <Well>
B08

>  <MW (desalted)>
166.177

>  <ClogP>
-0.126

>  <HBD>
1

>  <TPSA>
55.120

>  <RotBonds>
2

$$$$

            

 11 11  0  0  0  0            999 V2000
    0.7145    2.0625    0.0000 O   0  0  0  0  0  0  0  0  0  0  0  0
    0.7145    1.2375    0.0000 C   0  0  0  0  0  0  0  0  0  0  0  0
    1.4289    0.8250    0.0000 C   0  0  0  0  0  0  0  0  0  0  0  0
    1.4289   -0.0000    0.0000 C   0  0  0  0  0  0  0  0  0  0  0  0
    0.7145   -0.4125    0.0000 N   0  0  0  0  0  0  0  0  0  0  0  0
    0.0000    0.0000    0.0000 C   0  0  0  0  0  0  0  0  0  0  0  0
    0.0000    0.8250    0.0000 N   0  0  0  0  0  0  0  0  0  0  0  0
    2.1434   -0.4125    0.0000 C   0  0  0  0  0  0  0  0  0  0  0  0
    2.8579   -0.8250    0.0000 F   0  0  0  0  0  0  0  0  0  0  0  0
    1.7309   -1.1270    0.0000 F   0  0  0  0  0  0  0  0  0  0  0  0
    2.5559    0.3020    0.0000 F   0  0  0  0  0  0  0  0  0  0  0  0
  1  2  1  0  0  0  0
  2  3  2  0  0  0  0
  3  4  1  0  0  0  0
  4  5  2  0  0  0  0
  5  6  1  0  0  0  0
  6  7  2  0  0  0  0
  2  7  1  0  0  0  0
  4  8  1  0  0  0  0
  8  9  1  0  0  0  0
  8 10  1  0  0  0  0
  8 11  1  0  0  0  0
M  END
>  <Catalog ID>
Z1741969953

>  <PlateID>
1198308-R-SPFL-04

>  <Well>
B09

>  <MW (desalted)>
164.085

>  <ClogP>
1.276

>  <HBD>
1

>  <TPSA>
46.010

>  <RotBonds>
1

$$$$

            

 12 13  0  0  0  0            999 V2000
    3.4479    1.4620    0.0000 N   0  0  0  0  0  0  0  0  0  0  0  0
    3.6315    0.6577    0.0000 C   0  0  0  0  0  0  0  0  0  0  0  0
    4.4358    0.4742    0.0000 C   0  0  0  0  0  0  0  0  0  0  0  0
    4.7938   -0.2691    0.0000 C   0  0  0  0  0  0  0  0  0  0  0  0
    4.4358   -1.0124    0.0000 C   0  0  0  0  0  0  0  0  0  0  0  0
    3.6315   -1.1960    0.0000 O   0  0  0  0  0  0  0  0  0  0  0  0
    2.9865   -0.6816    0.0000 C   0  0  0  0  0  0  0  0  0  0  0  0
    2.2720   -1.0941    0.0000 C   0  0  0  0  0  0  0  0  0  0  0  0
    1.5575   -0.6816    0.0000 C   0  0  0  0  0  0  0  0  0  0  0  0
    1.5575    0.1434    0.0000 C   0  0  0  0  0  0  0  0  0  0  0  0
    2.2720    0.5559    0.0000 C   0  0  0  0  0  0  0  0  0  0  0  0
    2.9865    0.1434    0.0000 C   0  0  0  0  0  0  0  0  0  0  0  0
  1  2  1  0  0  0  0
  2  3  1  0  0  0  0
  3  4  1  0  0  0  0
  4  5  1  0  0  0  0
  5  6  1  0  0  0  0
  6  7  1  0  0  0  0
  7  8  2  0  0  0  0
  8  9  1  0  0  0  0
  9 10  2  0  0  0  0
 10 11  1  0  0  0  0
 11 12  2  0  0  0  0
  2 12  1  0  0  0  0
  7 12  1  0  0  0  0
M  END
>  <Catalog ID>
Z382721416

>  <PlateID>
1198308-R-SPFL-04

>  <Well>
B10

>  <MW (desalted)>
163.216

>  <ClogP>
1.517

>  <HBD>
1

>  <TPSA>
35.250

>  <RotBonds>
0

$$$$

            

 14 14  0  0  0  0            999 V2000
    0.0000    0.0000    0.0000 Cl  0  0  0  0  0  0  0  0  0  0  0  0
    3.7861   -1.6817    0.0000 C   0  0  0  0  0  0  0  0  0  0  0  0
    3.0716   -2.0942    0.0000 C   0  0  0  0  0  0  0  0  0  0  0  0
    2.3571   -1.6817    0.0000 N   0  0  0  0  0  0  0  0  0  0  0  0
    2.3571   -0.8567    0.0000 C   0  0  0  0  0  0  0  0  0  0  0  0
    3.0716   -0.4442    0.0000 C   0  0  0  0  0  0  0  0  0  0  0  0
    3.7861   -0.8567    0.0000 C   0  0  0  0  0  0  0  0  0  0  0  0
    3.0716    0.3808    0.0000 O   0  0  0  0  0  0  0  0  0  0  0  0
    3.7861    0.7933    0.0000 C   0  0  0  0  0  0  0  0  0  0  0  0
    3.7861    1.6183    0.0000 C   0  0  0  0  0  0  0  0  0  0  0  0
    4.5006    2.0308    0.0000 C   0  0  0  0  0  0  0  0  0  0  0  0
    5.2150    1.6183    0.0000 C   0  0  0  0  0  0  0  0  0  0  0  0
    5.2150    0.7933    0.0000 C   0  0  0  0  0  0  0  0  0  0  0  0
    4.5006    0.3808    0.0000 C   0  0  0  0  0  0  0  0  0  0  0  0
  2  3  1  0  0  0  0
  3  4  1  0  0  0  0
  4  5  1  0  0  0  0
  5  6  1  0  0  0  0
  6  7  1  0  0  0  0
  2  7  1  0  0  0  0
  6  8  1  0  0  0  0
  8  9  1  0  0  0  0
  9 10  2  0  0  0  0
 10 11  1  0  0  0  0
 11 12  2  0  0  0  0
 12 13  1  0  0  0  0
 13 14  2  0  0  0  0
  9 14  1  0  0  0  0
M  END
>  <Catalog ID>
Z1269188705

>  <PlateID>
1198308-R-SPFL-04

>  <Well>
B11

>  <MW (desalted)>
177.243

>  <ClogP>
2.220

>  <HBD>
1

>  <TPSA>
21.260

>  <RotBonds>
2

$$$$

            

 10 10  0  0  0  0            999 V2000
    1.2822    3.1768    0.0000 C   0  0  0  0  0  0  0  0  0  0  0  0
    1.2822    2.3518    0.0000 C   0  0  0  0  0  0  0  0  0  0  0  0
    1.9967    1.9393    0.0000 C   0  0  0  0  0  0  0  0  0  0  0  0
    0.5678    1.9393    0.0000 C   0  0  0  0  0  0  0  0  0  0  0  0
    0.5678    1.1143    0.0000 C   0  0  0  0  0  0  0  0  0  0  0  0
    1.2352    0.6294    0.0000 N   0  0  0  0  0  0  0  0  0  0  0  0
    0.9803   -0.1553    0.0000 N   0  0  0  0  0  0  0  0  0  0  0  0
    0.1553   -0.1553    0.0000 C   0  0  0  0  0  0  0  0  0  0  0  0
   -0.3297   -0.8227    0.0000 N   0  0  0  0  0  0  0  0  0  0  0  0
   -0.0997    0.6294    0.0000 O   0  0  0  0  0  0  0  0  0  0  0  0
  1  2  1  0  0  0  0
  2  3  1  0  0  0  0
  2  4  1  0  0  0  0
  4  5  1  0  0  0  0
  5  6  2  0  0  0  0
  6  7  1  0  0  0  0
  7  8  2  0  0  0  0
  8  9  1  0  0  0  0
  8 10  1  0  0  0  0
  5 10  1  0  0  0  0
M  END
>  <Catalog ID>
Z285233910

>  <PlateID>
1198308-R-SPFL-04

>  <Well>
C02

>  <MW (desalted)>
141.171

>  <ClogP>
0.443

>  <HBD>
1

>  <TPSA>
64.940

>  <RotBonds>
2

$$$$

            

 14 15  0  0  0  0            999 V2000
    1.4289   -0.0000    0.0000 O   0  0  0  0  0  0  0  0  0  0  0  0
    0.7145   -0.4125    0.0000 C   0  0  0  0  0  0  0  0  0  0  0  0
    0.0000    0.0000    0.0000 O   0  0  0  0  0  0  0  0  0  0  0  0
    0.7145   -1.2375    0.0000 C   0  0  0  0  0  0  0  0  0  0  0  0
    1.3819   -1.7224    0.0000 O   0  0  0  0  0  0  0  0  0  0  0  0
    1.1270   -2.5070    0.0000 C   0  0  0  0  0  0  0  0  0  0  0  0
    0.3020   -2.5070    0.0000 N   0  0  0  0  0  0  0  0  0  0  0  0
    0.0470   -1.7224    0.0000 C   0  0  0  0  0  0  0  0  0  0  0  0
   -0.7376   -1.4675    0.0000 C   0  0  0  0  0  0  0  0  0  0  0  0
   -1.3507   -2.0195    0.0000 C   0  0  0  0  0  0  0  0  0  0  0  0
   -2.1353   -1.7646    0.0000 C   0  0  0  0  0  0  0  0  0  0  0  0
   -2.3068   -0.9576    0.0000 C   0  0  0  0  0  0  0  0  0  0  0  0
   -1.6937   -0.4056    0.0000 C   0  0  0  0  0  0  0  0  0  0  0  0
   -0.9091   -0.6605    0.0000 C   0  0  0  0  0  0  0  0  0  0  0  0
  1  2  1  0  0  0  0
  2  3  2  0  0  0  0
  2  4  1  0  0  0  0
  4  5  1  0  0  0  0
  5  6  1  0  0  0  0
  6  7  2  0  0  0  0
  7  8  1  0  0  0  0
  4  8  2  0  0  0  0
  8  9  1  0  0  0  0
  9 10  2  0  0  0  0
 10 11  1  0  0  0  0
 11 12  2  0  0  0  0
 12 13  1  0  0  0  0
 13 14  2  0  0  0  0
  9 14  1  0  0  0  0
M  END
>  <Catalog ID>
Z1416168731

>  <PlateID>
1198308-R-SPFL-04

>  <Well>
C03

>  <MW (desalted)>
189.167

>  <ClogP>
1.273

>  <HBD>
1

>  <TPSA>
63.330

>  <RotBonds>
2

$$$$

            

 13 12  0  0  0  0            999 V2000
    0.0000    0.0000    0.0000 Cl  0  0  0  0  0  0  0  0  0  0  0  0
    2.3571    2.1656    0.0000 C   0  0  0  0  0  0  0  0  0  0  0  0
    2.3571    1.3406    0.0000 N   0  0  0  0  0  0  0  0  0  0  0  0
    3.0716    0.9281    0.0000 C   0  0  0  0  0  0  0  0  0  0  0  0
    3.7861    1.3406    0.0000 C   0  0  0  0  0  0  0  0  0  0  0  0
    4.5006    0.9281    0.0000 O   0  0  0  0  0  0  0  0  0  0  0  0
    3.0716    0.1031    0.0000 C   0  0  0  0  0  0  0  0  0  0  0  0
    3.7861   -0.3094    0.0000 C   0  0  0  0  0  0  0  0  0  0  0  0
    3.7861   -1.1344    0.0000 C   0  0  0  0  0  0  0  0  0  0  0  0
    3.0716   -1.5469    0.0000 C   0  0  0  0  0  0  0  0  0  0  0  0
    3.0716   -2.3719    0.0000 Cl  0  0  0  0  0  0  0  0  0  0  0  0
    2.3571   -1.1344    0.0000 C   0  0  0  0  0  0  0  0  0  0  0  0
    2.3571   -0.3094    0.0000 C   0  0  0  0  0  0  0  0  0  0  0  0
  2  3  1  0  0  0  0
  3  4  1  0  0  0  0
  4  5  1  0  0  0  0
  5  6  1  0  0  0  0
  4  7  1  0  0  0  0
  7  8  2  0  0  0  0
  8  9  1  0  0  0  0
  9 10  2  0  0  0  0
 10 11  1  0  0  0  0
 10 12  1  0  0  0  0
 12 13  2  0  0  0  0
  7 13  1  0  0  0  0
M  END
>  <Catalog ID>
Z2235386839

>  <PlateID>
1198308-R-SPFL-04

>  <Well>
C04

>  <MW (desalted)>
185.651

>  <ClogP>
1.411

>  <HBD>
2

>  <TPSA>
32.260

>  <RotBonds>
3

$$$$

            

 14 15  0  0  0  0            999 V2000
    2.0367   -0.4741    0.0000 C   0  0  0  0  0  0  0  0  0  0  0  0
    2.0367   -1.2991    0.0000 N   0  0  0  0  0  0  0  0  0  0  0  0
    2.7041   -1.7840    0.0000 C   0  0  0  0  0  0  0  0  0  0  0  0
    3.4888   -1.5291    0.0000 C   0  0  0  0  0  0  0  0  0  0  0  0
    4.1019   -2.0811    0.0000 C   0  0  0  0  0  0  0  0  0  0  0  0
    4.8865   -1.8262    0.0000 C   0  0  0  0  0  0  0  0  0  0  0  0
    5.4996   -2.3782    0.0000 C   0  0  0  0  0  0  0  0  0  0  0  0
    5.3281   -3.1852    0.0000 C   0  0  0  0  0  0  0  0  0  0  0  0
    4.5434   -3.4401    0.0000 C   0  0  0  0  0  0  0  0  0  0  0  0
    3.9303   -2.8881    0.0000 C   0  0  0  0  0  0  0  0  0  0  0  0
    2.4492   -2.5687    0.0000 C   0  0  0  0  0  0  0  0  0  0  0  0
    1.6242   -2.5687    0.0000 N   0  0  0  0  0  0  0  0  0  0  0  0
    1.3693   -1.7840    0.0000 C   0  0  0  0  0  0  0  0  0  0  0  0
    0.5846   -1.5291    0.0000 O   0  0  0  0  0  0  0  0  0  0  0  0
  1  2  1  0  0  0  0
  2  3  1  0  0  0  0
  3  4  1  0  0  0  0
  4  5  1  0  0  0  0
  5  6  2  0  0  0  0
  6  7  1  0  0  0  0
  7  8  2  0  0  0  0
  8  9  1  0  0  0  0
  9 10  2  0  0  0  0
  5 10  1  0  0  0  0
  3 11  1  0  0  0  0
 11 12  1  0  0  0  0
 12 13  1  0  0  0  0
  2 13  1  0  0  0  0
 13 14  2  0  0  0  0
M  END
>  <Catalog ID>
Z1416180209

>  <PlateID>
1198308-R-SPFL-04

>  <Well>
C05

>  <MW (desalted)>
190.242

>  <ClogP>
1.191

>  <HBD>
1

>  <TPSA>
32.340

>  <RotBonds>
2

$$$$

            

 14 15  0  0  0  0            999 V2000
    2.1434   -0.4125    0.0000 N   0  0  0  0  0  0  0  0  0  0  0  0
    2.1434   -1.2375    0.0000 C   0  0  0  0  0  0  0  0  0  0  0  0
    2.8579   -1.6500    0.0000 C   0  0  0  0  0  0  0  0  0  0  0  0
    2.8579   -2.4750    0.0000 N   0  0  0  0  0  0  0  0  0  0  0  0
    2.1434   -2.8875    0.0000 C   0  0  0  0  0  0  0  0  0  0  0  0
    1.4289   -2.4750    0.0000 C   0  0  0  0  0  0  0  0  0  0  0  0
    1.4289   -1.6500    0.0000 C   0  0  0  0  0  0  0  0  0  0  0  0
    0.7145   -1.2375    0.0000 O   0  0  0  0  0  0  0  0  0  0  0  0
    0.7145   -0.4125    0.0000 C   0  0  0  0  0  0  0  0  0  0  0  0
    0.0000    0.0000    0.0000 C   0  0  0  0  0  0  0  0  0  0  0  0
    0.0000    0.8250    0.0000 C   0  0  0  0  0  0  0  0  0  0  0  0
    0.7145    1.2375    0.0000 C   0  0  0  0  0  0  0  0  0  0  0  0
    1.4289    0.8250    0.0000 C   0  0  0  0  0  0  0  0  0  0  0  0
    1.4289    0.0000    0.0000 C   0  0  0  0  0  0  0  0  0  0  0  0
  1  2  1  0  0  0  0
  2  3  2  0  0  0  0
  3  4  1  0  0  0  0
  4  5  2  0  0  0  0
  5  6  1  0  0  0  0
  6  7  2  0  0  0  0
  2  7  1  0  0  0  0
  7  8  1  0  0  0  0
  8  9  1  0  0  0  0
  9 10  2  0  0  0  0
 10 11  1  0  0  0  0
 11 12  2  0  0  0  0
 12 13  1  0  0  0  0
 13 14  2  0  0  0  0
  9 14  1  0  0  0  0
M  END
>  <Catalog ID>
Z359373618

>  <PlateID>
1198308-R-SPFL-04

>  <Well>
C06

>  <MW (desalted)>
186.210

>  <ClogP>
2.596

>  <HBD>
1

>  <TPSA>
48.140

>  <RotBonds>
2

$$$$

            

 13 14  0  0  0  0            999 V2000
    0.7145   -2.8875    0.0000 N   0  0  0  0  0  0  0  0  0  0  0  0
    1.4289   -2.4750    0.0000 C   0  0  0  0  0  0  0  0  0  0  0  0
    2.1434   -2.8875    0.0000 O   0  0  0  0  0  0  0  0  0  0  0  0
    1.4289   -1.6500    0.0000 C   0  0  0  0  0  0  0  0  0  0  0  0
    0.7145   -1.2375    0.0000 C   0  0  0  0  0  0  0  0  0  0  0  0
    0.7145   -0.4125    0.0000 N   0  0  0  0  0  0  0  0  0  0  0  0
    1.4289    0.0000    0.0000 C   0  0  0  0  0  0  0  0  0  0  0  0
    2.1434   -0.4125    0.0000 C   0  0  0  0  0  0  0  0  0  0  0  0
    2.8579    0.0000    0.0000 C   0  0  0  0  0  0  0  0  0  0  0  0
    3.5724   -0.4125    0.0000 C   0  0  0  0  0  0  0  0  0  0  0  0
    3.5724   -1.2375    0.0000 C   0  0  0  0  0  0  0  0  0  0  0  0
    2.8579   -1.6500    0.0000 C   0  0  0  0  0  0  0  0  0  0  0  0
    2.1434   -1.2375    0.0000 C   0  0  0  0  0  0  0  0  0  0  0  0
  1  2  1  0  0  0  0
  2  3  2  0  0  0  0
  2  4  1  0  0  0  0
  4  5  2  0  0  0  0
  5  6  1  0  0  0  0
  6  7  2  0  0  0  0
  7  8  1  0  0  0  0
  8  9  2  0  0  0  0
  9 10  1  0  0  0  0
 10 11  2  0  0  0  0
 11 12  1  0  0  0  0
 12 13  2  0  0  0  0
  4 13  1  0  0  0  0
  8 13  1  0  0  0  0
M  END
>  <Catalog ID>
Z741560356

>  <PlateID>
1198308-R-SPFL-04

>  <Well>
C07

>  <MW (desalted)>
172.183

>  <ClogP>
0.968

>  <HBD>
1

>  <TPSA>
55.980

>  <RotBonds>
1

$$$$

            

 11 12  0  0  0  0            999 V2000
    1.2564   -0.1802    0.0000 C   0  0  0  0  0  0  0  0  0  0  0  0
    1.2564   -1.0052    0.0000 N   0  0  0  0  0  0  0  0  0  0  0  0
    1.9239   -1.4901    0.0000 C   0  0  0  0  0  0  0  0  0  0  0  0
    1.6689   -2.2748    0.0000 C   0  0  0  0  0  0  0  0  0  0  0  0
    0.8439   -2.2748    0.0000 N   0  0  0  0  0  0  0  0  0  0  0  0
    0.5890   -1.4901    0.0000 C   0  0  0  0  0  0  0  0  0  0  0  0
   -0.1956   -1.2352    0.0000 C   0  0  0  0  0  0  0  0  0  0  0  0
   -0.8631   -1.7201    0.0000 C   0  0  0  0  0  0  0  0  0  0  0  0
   -1.5305   -1.2352    0.0000 C   0  0  0  0  0  0  0  0  0  0  0  0
   -1.2756   -0.4506    0.0000 N   0  0  0  0  0  0  0  0  0  0  0  0
   -0.4506   -0.4506    0.0000 C   0  0  0  0  0  0  0  0  0  0  0  0
  1  2  1  0  0  0  0
  2  3  1  0  0  0  0
  3  4  2  0  0  0  0
  4  5  1  0  0  0  0
  5  6  2  0  0  0  0
  2  6  1  0  0  0  0
  6  7  1  0  0  0  0
  7  8  1  0  0  0  0
  8  9  1  0  0  0  0
  9 10  1  0  0  0  0
 10 11  1  0  0  0  0
  7 11  1  0  0  0  0
M  END
>  <Catalog ID>
Z1504685336

>  <PlateID>
1198308-R-SPFL-04

>  <Well>
C08

>  <MW (desalted)>
151.209

>  <ClogP>
-0.451

>  <HBD>
1

>  <TPSA>
29.850

>  <RotBonds>
1

$$$$

            

 11 12  0  0  0  0            999 V2000
    0.0000   -1.6500    0.0000 C   0  0  0  0  0  0  0  0  0  0  0  0
    0.7145   -1.2375    0.0000 C   0  0  0  0  0  0  0  0  0  0  0  0
    0.7145   -0.4125    0.0000 N   0  0  0  0  0  0  0  0  0  0  0  0
    1.4289    0.0000    0.0000 C   0  0  0  0  0  0  0  0  0  0  0  0
    2.1434   -0.4125    0.0000 C   0  0  0  0  0  0  0  0  0  0  0  0
    2.8579    0.0000    0.0000 C   0  0  0  0  0  0  0  0  0  0  0  0
    3.5724   -0.4125    0.0000 N   0  0  0  0  0  0  0  0  0  0  0  0
    3.5724   -1.2375    0.0000 C   0  0  0  0  0  0  0  0  0  0  0  0
    2.8579   -1.6500    0.0000 C   0  0  0  0  0  0  0  0  0  0  0  0
    2.1434   -1.2375    0.0000 C   0  0  0  0  0  0  0  0  0  0  0  0
    1.4289   -1.6500    0.0000 N   0  0  0  0  0  0  0  0  0  0  0  0
  1  2  1  0  0  0  0
  2  3  2  0  0  0  0
  3  4  1  0  0  0  0
  4  5  2  0  0  0  0
  5  6  1  0  0  0  0
  6  7  1  0  0  0  0
  7  8  1  0  0  0  0
  8  9  1  0  0  0  0
  9 10  1  0  0  0  0
  5 10  1  0  0  0  0
 10 11  2  0  0  0  0
  2 11  1  0  0  0  0
M  END
>  <Catalog ID>
Z234895115

>  <PlateID>
1198308-R-SPFL-04

>  <Well>
C09

>  <MW (desalted)>
149.193

>  <ClogP>
-0.360

>  <HBD>
1

>  <TPSA>
37.810

>  <RotBonds>
0

$$$$

            

 14 13  0  0  0  0            999 V2000
    0.0000    0.0000    0.0000 Cl  0  0  0  0  0  0  0  0  0  0  0  0
    2.0036    0.0000    0.0000 Cl  0  0  0  0  0  0  0  0  0  0  0  0
    0.0000   -3.7934    0.0000 C   0  0  0  0  0  0  0  0  0  0  0  0
   -0.4125   -3.0789    0.0000 N   0  0  0  0  0  0  0  0  0  0  0  0
   -1.2375   -3.0789    0.0000 C   0  0  0  0  0  0  0  0  0  0  0  0
   -1.6500   -2.3645    0.0000 C   0  0  0  0  0  0  0  0  0  0  0  0
   -1.2375   -1.6500    0.0000 N   0  0  0  0  0  0  0  0  0  0  0  0
   -0.4125   -1.6500    0.0000 C   0  0  0  0  0  0  0  0  0  0  0  0
   -0.0000   -2.3645    0.0000 C   0  0  0  0  0  0  0  0  0  0  0  0
    0.4125   -1.6500    0.0000 C   0  0  0  0  0  0  0  0  0  0  0  0
    1.2375   -1.6500    0.0000 C   0  0  0  0  0  0  0  0  0  0  0  0
    1.6500   -2.3645    0.0000 C   0  0  0  0  0  0  0  0  0  0  0  0
    1.2375   -3.0789    0.0000 C   0  0  0  0  0  0  0  0  0  0  0  0
    0.4125   -3.0789    0.0000 C   0  0  0  0  0  0  0  0  0  0  0  0
  3  4  1  0  0  0  0
  4  5  1  0  0  0  0
  5  6  1  0  0  0  0
  6  7  1  0  0  0  0
  7  8  1  0  0  0  0
  8  9  1  0  0  0  0
  4  9  1  0  0  0  0
  9 10  1  0  0  0  0
 10 11  1  0  0  0  0
 11 12  1  0  0  0  0
 12 13  1  0  0  0  0
 13 14  1  0  0  0  0
  9 14  1  0  0  0  0
M  END
>  <Catalog ID>
Z2235409304

>  <PlateID>
1198308-R-SPFL-04

>  <Well>
C10

>  <MW (desalted)>
168.279

>  <ClogP>
1.753

>  <HBD>
1

>  <TPSA>
15.270

>  <RotBonds>
0

$$$$

            

 11 12  0  0  0  0            999 V2000
    0.5057    2.4958    0.0000 O   0  0  0  0  0  0  0  0  0  0  0  0
    1.1188    1.9438    0.0000 C   0  0  0  0  0  0  0  0  0  0  0  0
    0.9473    1.1368    0.0000 O   0  0  0  0  0  0  0  0  0  0  0  0
    1.9034    2.1987    0.0000 C   0  0  0  0  0  0  0  0  0  0  0  0
    2.1584    2.9834    0.0000 C   0  0  0  0  0  0  0  0  0  0  0  0
    2.9834    2.9834    0.0000 N   0  0  0  0  0  0  0  0  0  0  0  0
    3.2383    2.1987    0.0000 O   0  0  0  0  0  0  0  0  0  0  0  0
    2.5709    1.7138    0.0000 C   0  0  0  0  0  0  0  0  0  0  0  0
    2.5709    0.8888    0.0000 C   0  0  0  0  0  0  0  0  0  0  0  0
    2.9834    0.1743    0.0000 C   0  0  0  0  0  0  0  0  0  0  0  0
    2.1584    0.1743    0.0000 C   0  0  0  0  0  0  0  0  0  0  0  0
  1  2  1  0  0  0  0
  2  3  2  0  0  0  0
  2  4  1  0  0  0  0
  4  5  1  0  0  0  0
  5  6  2  0  0  0  0
  6  7  1  0  0  0  0
  7  8  1  0  0  0  0
  4  8  2  0  0  0  0
  8  9  1  0  0  0  0
  9 10  1  0  0  0  0
 10 11  1  0  0  0  0
  9 11  1  0  0  0  0
M  END
>  <Catalog ID>
Z406694026

>  <PlateID>
1198308-R-SPFL-04

>  <Well>
C11

>  <MW (desalted)>
153.135

>  <ClogP>
-0.040

>  <HBD>
1

>  <TPSA>
63.330

>  <RotBonds>
2

$$$$

            

 10 10  0  0  0  0            999 V2000
    0.5678    1.9393    0.0000 C   0  0  0  0  0  0  0  0  0  0  0  0
    0.5678    1.1143    0.0000 C   0  0  0  0  0  0  0  0  0  0  0  0
    1.2352    0.6294    0.0000 C   0  0  0  0  0  0  0  0  0  0  0  0
    0.9803   -0.1553    0.0000 O   0  0  0  0  0  0  0  0  0  0  0  0
    0.1553   -0.1553    0.0000 C   0  0  0  0  0  0  0  0  0  0  0  0
   -0.3297   -0.8227    0.0000 C   0  0  0  0  0  0  0  0  0  0  0  0
   -0.0997    0.6294    0.0000 C   0  0  0  0  0  0  0  0  0  0  0  0
   -0.8843    0.8843    0.0000 C   0  0  0  0  0  0  0  0  0  0  0  0
   -1.0558    1.6913    0.0000 O   0  0  0  0  0  0  0  0  0  0  0  0
   -1.4974    0.3323    0.0000 O   0  0  0  0  0  0  0  0  0  0  0  0
  1  2  1  0  0  0  0
  2  3  2  0  0  0  0
  3  4  1  0  0  0  0
  4  5  1  0  0  0  0
  5  6  1  0  0  0  0
  5  7  2  0  0  0  0
  2  7  1  0  0  0  0
  7  8  1  0  0  0  0
  8  9  2  0  0  0  0
  8 10  1  0  0  0  0
M  END
>  <Catalog ID>
Z1198181048

>  <PlateID>
1198308-R-SPFL-04

>  <Well>
D02

>  <MW (desalted)>
140.137

>  <ClogP>
1.459

>  <HBD>
1

>  <TPSA>
50.440

>  <RotBonds>
1

$$$$

            

 16 17  0  0  0  0            999 V2000
    2.0367   -0.4741    0.0000 C   0  0  0  0  0  0  0  0  0  0  0  0
    2.0367   -1.2991    0.0000 N   0  0  0  0  0  0  0  0  0  0  0  0
    2.7041   -1.7840    0.0000 N   0  0  0  0  0  0  0  0  0  0  0  0
    2.4492   -2.5687    0.0000 C   0  0  0  0  0  0  0  0  0  0  0  0
    1.6242   -2.5687    0.0000 C   0  0  0  0  0  0  0  0  0  0  0  0
    1.1393   -3.2361    0.0000 C   0  0  0  0  0  0  0  0  0  0  0  0
    1.4748   -3.9898    0.0000 O   0  0  0  0  0  0  0  0  0  0  0  0
    0.3188   -3.1499    0.0000 O   0  0  0  0  0  0  0  0  0  0  0  0
    1.3693   -1.7840    0.0000 C   0  0  0  0  0  0  0  0  0  0  0  0
    0.5846   -1.5291    0.0000 C   0  0  0  0  0  0  0  0  0  0  0  0
    0.4131   -0.7221    0.0000 C   0  0  0  0  0  0  0  0  0  0  0  0
   -0.3715   -0.4672    0.0000 C   0  0  0  0  0  0  0  0  0  0  0  0
   -0.5430    0.3398    0.0000 C   0  0  0  0  0  0  0  0  0  0  0  0
    0.0701    0.8918    0.0000 C   0  0  0  0  0  0  0  0  0  0  0  0
    0.8547    0.6369    0.0000 C   0  0  0  0  0  0  0  0  0  0  0  0
    1.0262   -0.1701    0.0000 C   0  0  0  0  0  0  0  0  0  0  0  0
  1  2  1  0  0  0  0
  2  3  1  0  0  0  0
  3  4  2  0  0  0  0
  4  5  1  0  0  0  0
  5  6  1  0  0  0  0
  6  7  2  0  0  0  0
  6  8  1  0  0  0  0
  5  9  2  0  0  0  0
  2  9  1  0  0  0  0
  9 10  1  0  0  0  0
 10 11  1  0  0  0  0
 11 12  2  0  0  0  0
 12 13  1  0  0  0  0
 13 14  2  0  0  0  0
 14 15  1  0  0  0  0
 15 16  2  0  0  0  0
 11 16  1  0  0  0  0
M  END
>  <Catalog ID>
Z1508990529

>  <PlateID>
1198308-R-SPFL-04

>  <Well>
D03

>  <MW (desalted)>
216.236

>  <ClogP>
1.198

>  <HBD>
1

>  <TPSA>
55.120

>  <RotBonds>
3

$$$$

            

 10 10  0  0  0  0            999 V2000
    0.0000    2.4750    0.0000 O   0  0  0  0  0  0  0  0  0  0  0  0
    0.7145    2.0625    0.0000 C   0  0  0  0  0  0  0  0  0  0  0  0
    1.4289    2.4750    0.0000 O   0  0  0  0  0  0  0  0  0  0  0  0
    0.7145    1.2375    0.0000 C   0  0  0  0  0  0  0  0  0  0  0  0
    1.4289    0.8250    0.0000 C   0  0  0  0  0  0  0  0  0  0  0  0
    1.4289   -0.0000    0.0000 C   0  0  0  0  0  0  0  0  0  0  0  0
    0.7145   -0.4125    0.0000 C   0  0  0  0  0  0  0  0  0  0  0  0
    0.7145   -1.2375    0.0000 F   0  0  0  0  0  0  0  0  0  0  0  0
    0.0000    0.0000    0.0000 C   0  0  0  0  0  0  0  0  0  0  0  0
    0.0000    0.8250    0.0000 N   0  0  0  0  0  0  0  0  0  0  0  0
  1  2  1  0  0  0  0
  2  3  2  0  0  0  0
  2  4  1  0  0  0  0
  4  5  2  0  0  0  0
  5  6  1  0  0  0  0
  6  7  2  0  0  0  0
  7  8  1  0  0  0  0
  7  9  1  0  0  0  0
  9 10  2  0  0  0  0
  4 10  1  0  0  0  0
M  END
>  <Catalog ID>
Z425834578

>  <PlateID>
1198308-R-SPFL-04

>  <Well>
D04

>  <MW (desalted)>
141.100

>  <ClogP>
1.185

>  <HBD>
1

>  <TPSA>
50.190

>  <RotBonds>
1

$$$$

            

 14 15  0  0  0  0            999 V2000
    0.0000   -1.6500    0.0000 N   0  0  0  0  0  0  0  0  0  0  0  0
    0.7145   -1.2375    0.0000 C   0  0  0  0  0  0  0  0  0  0  0  0
    1.4289   -1.6500    0.0000 C   0  0  0  0  0  0  0  0  0  0  0  0
    1.4289   -2.4750    0.0000 N   0  0  0  0  0  0  0  0  0  0  0  0
    2.0964   -2.9599    0.0000 C   0  0  0  0  0  0  0  0  0  0  0  0
    1.8414   -3.7445    0.0000 C   0  0  0  0  0  0  0  0  0  0  0  0
    1.0164   -3.7445    0.0000 C   0  0  0  0  0  0  0  0  0  0  0  0
    0.7615   -2.9599    0.0000 C   0  0  0  0  0  0  0  0  0  0  0  0
    0.7145   -0.4125    0.0000 C   0  0  0  0  0  0  0  0  0  0  0  0
    0.0000    0.0000    0.0000 C   0  0  0  0  0  0  0  0  0  0  0  0
    0.0000    0.8250    0.0000 C   0  0  0  0  0  0  0  0  0  0  0  0
    0.7145    1.2375    0.0000 C   0  0  0  0  0  0  0  0  0  0  0  0
    1.4289    0.8250    0.0000 C   0  0  0  0  0  0  0  0  0  0  0  0
    1.4289    0.0000    0.0000 C   0  0  0  0  0  0  0  0  0  0  0  0
  1  2  1  0  0  0  0
  2  3  1  0  0  0  0
  3  4  1  0  0  0  0
  4  5  1  0  0  0  0
  5  6  1  0  0  0  0
  6  7  1  0  0  0  0
  7  8  1  0  0  0  0
  4  8  1  0  0  0  0
  2  9  1  0  0  0  0
  9 10  2  0  0  0  0
 10 11  1  0  0  0  0
 11 12  2  0  0  0  0
 12 13  1  0  0  0  0
 13 14  2  0  0  0  0
  9 14  1  0  0  0  0
M  END
>  <Catalog ID>
Z228584858

>  <PlateID>
1198308-R-SPFL-04

>  <Well>
D05

>  <MW (desalted)>
190.285

>  <ClogP>
1.818

>  <HBD>
1

>  <TPSA>
29.260

>  <RotBonds>
3

$$$$

            

 11 12  0  0  0  0            999 V2000
    0.0768   -2.3215    0.0000 N   0  0  0  0  0  0  0  0  0  0  0  0
    0.8838   -2.1500    0.0000 C   0  0  0  0  0  0  0  0  0  0  0  0
    1.1387   -1.3654    0.0000 C   0  0  0  0  0  0  0  0  0  0  0  0
    0.6538   -0.6979    0.0000 C   0  0  0  0  0  0  0  0  0  0  0  0
    1.1387   -0.0305    0.0000 S   0  0  0  0  0  0  0  0  0  0  0  0
    1.9233   -0.2854    0.0000 C   0  0  0  0  0  0  0  0  0  0  0  0
    2.6378    0.1271    0.0000 C   0  0  0  0  0  0  0  0  0  0  0  0
    3.3523   -0.2854    0.0000 C   0  0  0  0  0  0  0  0  0  0  0  0
    3.3523   -1.1104    0.0000 C   0  0  0  0  0  0  0  0  0  0  0  0
    2.6378   -1.5229    0.0000 C   0  0  0  0  0  0  0  0  0  0  0  0
    1.9233   -1.1104    0.0000 C   0  0  0  0  0  0  0  0  0  0  0  0
  1  2  1  0  0  0  0
  2  3  1  0  0  0  0
  3  4  1  0  0  0  0
  4  5  1  0  0  0  0
  5  6  1  0  0  0  0
  6  7  2  0  0  0  0
  7  8  1  0  0  0  0
  8  9  2  0  0  0  0
  9 10  1  0  0  0  0
 10 11  2  0  0  0  0
  3 11  1  0  0  0  0
  6 11  1  0  0  0  0
M  END
>  <Catalog ID>
Z1316760731

>  <PlateID>
1198308-R-SPFL-04

>  <Well>
D06

>  <MW (desalted)>
165.255

>  <ClogP>
1.468

>  <HBD>
1

>  <TPSA>
26.020

>  <RotBonds>
1

$$$$

            

 12 12  0  0  0  0            999 V2000
   -0.1467    3.1768    0.0000 C   0  0  0  0  0  0  0  0  0  0  0  0
   -0.1467    2.3518    0.0000 O   0  0  0  0  0  0  0  0  0  0  0  0
    0.5678    1.9393    0.0000 C   0  0  0  0  0  0  0  0  0  0  0  0
    0.5678    1.1143    0.0000 C   0  0  0  0  0  0  0  0  0  0  0  0
    1.2352    0.6294    0.0000 C   0  0  0  0  0  0  0  0  0  0  0  0
    0.9803   -0.1553    0.0000 C   0  0  0  0  0  0  0  0  0  0  0  0
    1.4652   -0.8227    0.0000 C   0  0  0  0  0  0  0  0  0  0  0  0
    2.2857   -0.7365    0.0000 O   0  0  0  0  0  0  0  0  0  0  0  0
    1.1296   -1.5764    0.0000 O   0  0  0  0  0  0  0  0  0  0  0  0
    0.1553   -0.1553    0.0000 C   0  0  0  0  0  0  0  0  0  0  0  0
   -0.3297   -0.8227    0.0000 C   0  0  0  0  0  0  0  0  0  0  0  0
   -0.0997    0.6294    0.0000 O   0  0  0  0  0  0  0  0  0  0  0  0
  1  2  1  0  0  0  0
  2  3  1  0  0  0  0
  3  4  1  0  0  0  0
  4  5  2  0  0  0  0
  5  6  1  0  0  0  0
  6  7  1  0  0  0  0
  7  8  2  0  0  0  0
  7  9  1  0  0  0  0
  6 10  2  0  0  0  0
 10 11  1  0  0  0  0
 10 12  1  0  0  0  0
  4 12  1  0  0  0  0
M  END
>  <Catalog ID>
Z154210178

>  <PlateID>
1198308-R-SPFL-04

>  <Well>
D07

>  <MW (desalted)>
170.163

>  <ClogP>
1.058

>  <HBD>
1

>  <TPSA>
59.670

>  <RotBonds>
3

$$$$

            

 12 13  0  0  0  0            999 V2000
    4.0668    3.1729    0.0000 O   0  0  0  0  0  0  0  0  0  0  0  0
    4.0668    2.3479    0.0000 C   0  0  0  0  0  0  0  0  0  0  0  0
    3.3523    1.9354    0.0000 C   0  0  0  0  0  0  0  0  0  0  0  0
    3.3523    1.1104    0.0000 C   0  0  0  0  0  0  0  0  0  0  0  0
    2.6378    0.6979    0.0000 C   0  0  0  0  0  0  0  0  0  0  0  0
    2.6378   -0.1271    0.0000 Cl  0  0  0  0  0  0  0  0  0  0  0  0
    1.9233    1.1104    0.0000 C   0  0  0  0  0  0  0  0  0  0  0  0
    1.1387    0.8555    0.0000 N   0  0  0  0  0  0  0  0  0  0  0  0
    0.6538    1.5229    0.0000 C   0  0  0  0  0  0  0  0  0  0  0  0
    1.1387    2.1904    0.0000 C   0  0  0  0  0  0  0  0  0  0  0  0
    1.9233    1.9354    0.0000 N   0  0  0  0  0  0  0  0  0  0  0  0
    2.6378    2.3479    0.0000 C   0  0  0  0  0  0  0  0  0  0  0  0
  1  2  1  0  0  0  0
  2  3  1  0  0  0  0
  3  4  1  0  0  0  0
  4  5  2  0  0  0  0
  5  6  1  0  0  0  0
  5  7  1  0  0  0  0
  7  8  2  0  0  0  0
  8  9  1  0  0  0  0
  9 10  2  0  0  0  0
 10 11  1  0  0  0  0
  7 11  1  0  0  0  0
 11 12  1  0  0  0  0
  3 12  2  0  0  0  0
M  END
>  <Catalog ID>
Z1065646826

>  <PlateID>
1198308-R-SPFL-04

>  <Well>
D08

>  <MW (desalted)>
182.607

>  <ClogP>
1.541

>  <HBD>
1

>  <TPSA>
37.530

>  <RotBonds>
1

$$$$

            

 11 12  0  0  0  0            999 V2000
   -0.5837   -1.4124    0.0000 O   0  0  0  0  0  0  0  0  0  0  0  0
   -0.1712   -0.6979    0.0000 C   0  0  0  0  0  0  0  0  0  0  0  0
    0.6538   -0.6979    0.0000 C   0  0  0  0  0  0  0  0  0  0  0  0
    1.1387   -0.0305    0.0000 C   0  0  0  0  0  0  0  0  0  0  0  0
    1.9233   -0.2854    0.0000 C   0  0  0  0  0  0  0  0  0  0  0  0
    2.6378    0.1271    0.0000 C   0  0  0  0  0  0  0  0  0  0  0  0
    3.3523   -0.2854    0.0000 C   0  0  0  0  0  0  0  0  0  0  0  0
    3.3523   -1.1104    0.0000 N   0  0  0  0  0  0  0  0  0  0  0  0
    2.6378   -1.5229    0.0000 C   0  0  0  0  0  0  0  0  0  0  0  0
    1.9233   -1.1104    0.0000 C   0  0  0  0  0  0  0  0  0  0  0  0
    1.1387   -1.3654    0.0000 S   0  0  0  0  0  0  0  0  0  0  0  0
  1  2  1  0  0  0  0
  2  3  1  0  0  0  0
  3  4  2  0  0  0  0
  4  5  1  0  0  0  0
  5  6  2  0  0  0  0
  6  7  1  0  0  0  0
  7  8  2  0  0  0  0
  8  9  1  0  0  0  0
  9 10  2  0  0  0  0
  5 10  1  0  0  0  0
 10 11  1  0  0  0  0
  3 11  1  0  0  0  0
M  END
>  <Catalog ID>
Z1198727572

>  <PlateID>
1198308-R-SPFL-04

>  <Well>
D09

>  <MW (desalted)>
165.212

>  <ClogP>
0.783

>  <HBD>
1

>  <TPSA>
33.120

>  <RotBonds>
1

$$$$

            

 16 17  0  0  0  0            999 V2000
    1.3222    3.2384    0.0000 C   0  0  0  0  0  0  0  0  0  0  0  0
    2.0367    3.6509    0.0000 C   0  0  0  0  0  0  0  0  0  0  0  0
    2.0367    4.4759    0.0000 C   0  0  0  0  0  0  0  0  0  0  0  0
    2.7512    4.8884    0.0000 C   0  0  0  0  0  0  0  0  0  0  0  0
    3.4656    4.4759    0.0000 C   0  0  0  0  0  0  0  0  0  0  0  0
    3.4656    3.6509    0.0000 C   0  0  0  0  0  0  0  0  0  0  0  0
    4.1801    3.2384    0.0000 N   0  0  0  0  0  0  0  0  0  0  0  0
    4.1801    2.4134    0.0000 C   0  0  0  0  0  0  0  0  0  0  0  0
    3.4656    2.0009    0.0000 O   0  0  0  0  0  0  0  0  0  0  0  0
    4.8946    2.0009    0.0000 C   0  0  0  0  0  0  0  0  0  0  0  0
    4.8946    1.1759    0.0000 N   0  0  0  0  0  0  0  0  0  0  0  0
    5.5620    0.6910    0.0000 C   0  0  0  0  0  0  0  0  0  0  0  0
    5.3071   -0.0937    0.0000 N   0  0  0  0  0  0  0  0  0  0  0  0
    4.4821   -0.0937    0.0000 C   0  0  0  0  0  0  0  0  0  0  0  0
    4.2272    0.6910    0.0000 N   0  0  0  0  0  0  0  0  0  0  0  0
    2.7512    3.2384    0.0000 C   0  0  0  0  0  0  0  0  0  0  0  0
  1  2  1  0  0  0  0
  2  3  2  0  0  0  0
  3  4  1  0  0  0  0
  4  5  2  0  0  0  0
  5  6  1  0  0  0  0
  6  7  1  0  0  0  0
  7  8  1  0  0  0  0
  8  9  2  0  0  0  0
  8 10  1  0  0  0  0
 10 11  1  0  0  0  0
 11 12  1  0  0  0  0
 12 13  2  0  0  0  0
 13 14  1  0  0  0  0
 14 15  2  0  0  0  0
 11 15  1  0  0  0  0
  6 16  2  0  0  0  0
  2 16  1  0  0  0  0
M  END
>  <Catalog ID>
Z27790103

>  <PlateID>
1198308-R-SPFL-04

>  <Well>
D10

>  <MW (desalted)>
216.239

>  <ClogP>
0.718

>  <HBD>
1

>  <TPSA>
59.810

>  <RotBonds>
3

$$$$

            

 12 14  0  0  0  0            999 V2000
    1.0553   -2.9570    0.0000 C   0  0  0  0  0  0  0  0  0  0  0  0
    0.2707   -2.7020    0.0000 C   0  0  0  0  0  0  0  0  0  0  0  0
    0.8838   -2.1500    0.0000 C   0  0  0  0  0  0  0  0  0  0  0  0
    1.1387   -1.3654    0.0000 N   0  0  0  0  0  0  0  0  0  0  0  0
    0.6538   -0.6979    0.0000 C   0  0  0  0  0  0  0  0  0  0  0  0
    1.1387   -0.0305    0.0000 N   0  0  0  0  0  0  0  0  0  0  0  0
    1.9233   -0.2854    0.0000 C   0  0  0  0  0  0  0  0  0  0  0  0
    2.6378    0.1271    0.0000 C   0  0  0  0  0  0  0  0  0  0  0  0
    3.3523   -0.2854    0.0000 N   0  0  0  0  0  0  0  0  0  0  0  0
    3.3523   -1.1104    0.0000 C   0  0  0  0  0  0  0  0  0  0  0  0
    2.6378   -1.5229    0.0000 C   0  0  0  0  0  0  0  0  0  0  0  0
    1.9233   -1.1104    0.0000 C   0  0  0  0  0  0  0  0  0  0  0  0
  1  2  1  0  0  0  0
  2  3  1  0  0  0  0
  1  3  1  0  0  0  0
  3  4  1  0  0  0  0
  4  5  1  0  0  0  0
  5  6  2  0  0  0  0
  6  7  1  0  0  0  0
  7  8  2  0  0  0  0
  8  9  1  0  0  0  0
  9 10  2  0  0  0  0
 10 11  1  0  0  0  0
 11 12  2  0  0  0  0
  4 12  1  0  0  0  0
  7 12  1  0  0  0  0
M  END
>  <Catalog ID>
Z1452734073

>  <PlateID>
1198308-R-SPFL-04

>  <Well>
D11

>  <MW (desalted)>
159.188

>  <ClogP>
1.069

>  <HBD>
0

>  <TPSA>
30.710

>  <RotBonds>
1

$$$$

            

 12 13  0  0  0  0            999 V2000
    1.9888    5.6836    0.0000 C   0  0  0  0  0  0  0  0  0  0  0  0
    2.8138    5.6836    0.0000 C   0  0  0  0  0  0  0  0  0  0  0  0
    3.3281    5.0385    0.0000 C   0  0  0  0  0  0  0  0  0  0  0  0
    3.1446    4.2342    0.0000 N   0  0  0  0  0  0  0  0  0  0  0  0
    2.4013    3.8763    0.0000 C   0  0  0  0  0  0  0  0  0  0  0  0
    1.6580    4.2342    0.0000 C   0  0  0  0  0  0  0  0  0  0  0  0
    1.4744    5.0385    0.0000 C   0  0  0  0  0  0  0  0  0  0  0  0
    2.4013    3.0513    0.0000 C   0  0  0  0  0  0  0  0  0  0  0  0
    3.0687    2.5664    0.0000 C   0  0  0  0  0  0  0  0  0  0  0  0
    2.8138    1.7817    0.0000 C   0  0  0  0  0  0  0  0  0  0  0  0
    1.9888    1.7817    0.0000 C   0  0  0  0  0  0  0  0  0  0  0  0
    1.7338    2.5664    0.0000 O   0  0  0  0  0  0  0  0  0  0  0  0
  1  2  1  0  0  0  0
  2  3  1  0  0  0  0
  3  4  1  0  0  0  0
  4  5  1  0  0  0  0
  5  6  1  0  0  0  0
  6  7  1  0  0  0  0
  1  7  1  0  0  0  0
  5  8  1  0  0  0  0
  8  9  2  0  0  0  0
  9 10  1  0  0  0  0
 10 11  2  0  0  0  0
 11 12  1  0  0  0  0
  8 12  1  0  0  0  0
M  END
>  <Catalog ID>
Z1192018738

>  <PlateID>
1198308-R-SPFL-04

>  <Well>
E02

>  <MW (desalted)>
165.232

>  <ClogP>
2.228

>  <HBD>
1

>  <TPSA>
25.170

>  <RotBonds>
1

$$$$

            

 12 13  0  0  0  0            999 V2000
   -0.1712   -0.6979    0.0000 C   0  0  0  0  0  0  0  0  0  0  0  0
    0.6538   -0.6979    0.0000 C   0  0  0  0  0  0  0  0  0  0  0  0
    1.1387   -0.0305    0.0000 N   0  0  0  0  0  0  0  0  0  0  0  0
    1.9233   -0.2854    0.0000 C   0  0  0  0  0  0  0  0  0  0  0  0
    2.6378    0.1271    0.0000 C   0  0  0  0  0  0  0  0  0  0  0  0
    3.3523   -0.2854    0.0000 C   0  0  0  0  0  0  0  0  0  0  0  0
    3.3523   -1.1104    0.0000 C   0  0  0  0  0  0  0  0  0  0  0  0
    4.0668   -1.5229    0.0000 C   0  0  0  0  0  0  0  0  0  0  0  0
    4.7812   -1.1104    0.0000 O   0  0  0  0  0  0  0  0  0  0  0  0
    2.6378   -1.5229    0.0000 C   0  0  0  0  0  0  0  0  0  0  0  0
    1.9233   -1.1104    0.0000 C   0  0  0  0  0  0  0  0  0  0  0  0
    1.1387   -1.3654    0.0000 S   0  0  0  0  0  0  0  0  0  0  0  0
  1  2  1  0  0  0  0
  2  3  2  0  0  0  0
  3  4  1  0  0  0  0
  4  5  2  0  0  0  0
  5  6  1  0  0  0  0
  6  7  2  0  0  0  0
  7  8  1  0  0  0  0
  8  9  1  0  0  0  0
  7 10  1  0  0  0  0
 10 11  2  0  0  0  0
  4 11  1  0  0  0  0
 11 12  1  0  0  0  0
  2 12  1  0  0  0  0
M  END
>  <Catalog ID>
Z56823516

>  <PlateID>
1198308-R-SPFL-04

>  <Well>
E03

>  <MW (desalted)>
179.239

>  <ClogP>
1.541

>  <HBD>
1

>  <TPSA>
33.120

>  <RotBonds>
1

$$$$

            

 10 10  0  0  0  0            999 V2000
    2.1434    2.0625    0.0000 O   0  0  0  0  0  0  0  0  0  0  0  0
    2.1434    1.2375    0.0000 C   0  0  0  0  0  0  0  0  0  0  0  0
    1.4289    0.8250    0.0000 C   0  0  0  0  0  0  0  0  0  0  0  0
    1.4289   -0.0000    0.0000 C   0  0  0  0  0  0  0  0  0  0  0  0
    0.7145   -0.4125    0.0000 C   0  0  0  0  0  0  0  0  0  0  0  0
    0.0000    0.0000    0.0000 C   0  0  0  0  0  0  0  0  0  0  0  0
    0.0000    0.8250    0.0000 C   0  0  0  0  0  0  0  0  0  0  0  0
    0.7145    1.2375    0.0000 C   0  0  0  0  0  0  0  0  0  0  0  0
    0.3272    1.9659    0.0000 F   0  0  0  0  0  0  0  0  0  0  0  0
    1.1018    1.9659    0.0000 F   0  0  0  0  0  0  0  0  0  0  0  0
  1  2  1  0  0  0  0
  2  3  1  0  0  0  0
  3  4  1  0  0  0  0
  4  5  1  0  0  0  0
  5  6  1  0  0  0  0
  6  7  1  0  0  0  0
  7  8  1  0  0  0  0
  3  8  1  0  0  0  0
  8  9  1  0  0  0  0
  8 10  1  0  0  0  0
M  END
>  <Catalog ID>
Z2216726693

>  <PlateID>
1198308-R-SPFL-04

>  <Well>
E04

>  <MW (desalted)>
150.166

>  <ClogP>
1.272

>  <HBD>
1

>  <TPSA>
20.230

>  <RotBonds>
1

$$$$

            

 14 15  0  0  0  0            999 V2000
    2.7512   -0.0616    0.0000 C   0  0  0  0  0  0  0  0  0  0  0  0
    2.0367   -0.4741    0.0000 C   0  0  0  0  0  0  0  0  0  0  0  0
    2.0367   -1.2991    0.0000 C   0  0  0  0  0  0  0  0  0  0  0  0
    2.7041   -1.7840    0.0000 N   0  0  0  0  0  0  0  0  0  0  0  0
    2.4492   -2.5687    0.0000 O   0  0  0  0  0  0  0  0  0  0  0  0
    1.6242   -2.5687    0.0000 C   0  0  0  0  0  0  0  0  0  0  0  0
    1.1393   -3.2361    0.0000 C   0  0  0  0  0  0  0  0  0  0  0  0
    0.3188   -3.1499    0.0000 C   0  0  0  0  0  0  0  0  0  0  0  0
   -0.1661   -3.8173    0.0000 C   0  0  0  0  0  0  0  0  0  0  0  0
   -0.9866   -3.7311    0.0000 C   0  0  0  0  0  0  0  0  0  0  0  0
   -1.3222   -2.9774    0.0000 N   0  0  0  0  0  0  0  0  0  0  0  0
   -0.8372   -2.3099    0.0000 C   0  0  0  0  0  0  0  0  0  0  0  0
   -0.0168   -2.3962    0.0000 C   0  0  0  0  0  0  0  0  0  0  0  0
    1.3693   -1.7840    0.0000 N   0  0  0  0  0  0  0  0  0  0  0  0
  1  2  1  0  0  0  0
  2  3  1  0  0  0  0
  3  4  2  0  0  0  0
  4  5  1  0  0  0  0
  5  6  1  0  0  0  0
  6  7  1  0  0  0  0
  7  8  1  0  0  0  0
  8  9  1  0  0  0  0
  9 10  1  0  0  0  0
 10 11  1  0  0  0  0
 11 12  1  0  0  0  0
 12 13  1  0  0  0  0
  8 13  1  0  0  0  0
  6 14  2  0  0  0  0
  3 14  1  0  0  0  0
M  END
>  <Catalog ID>
Z1255500831

>  <PlateID>
1198308-R-SPFL-04

>  <Well>
E05

>  <MW (desalted)>
195.261

>  <ClogP>
0.792

>  <HBD>
1

>  <TPSA>
50.950

>  <RotBonds>
3

$$$$

            

 12 13  0  0  0  0            999 V2000
    0.7145   -2.8875    0.0000 C   0  0  0  0  0  0  0  0  0  0  0  0
    0.0000   -2.4750    0.0000 C   0  0  0  0  0  0  0  0  0  0  0  0
    0.0000   -1.6500    0.0000 C   0  0  0  0  0  0  0  0  0  0  0  0
    0.7145   -1.2375    0.0000 C   0  0  0  0  0  0  0  0  0  0  0  0
    1.4289   -1.6500    0.0000 C   0  0  0  0  0  0  0  0  0  0  0  0
    1.4289   -2.4750    0.0000 C   0  0  0  0  0  0  0  0  0  0  0  0
    0.7145   -0.4125    0.0000 C   0  0  0  0  0  0  0  0  0  0  0  0
    0.0000    0.0000    0.0000 C   0  0  0  0  0  0  0  0  0  0  0  0
    0.0000    0.8250    0.0000 N   0  0  0  0  0  0  0  0  0  0  0  0
    0.7145    1.2375    0.0000 C   0  0  0  0  0  0  0  0  0  0  0  0
    1.4289    0.8250    0.0000 C   0  0  0  0  0  0  0  0  0  0  0  0
    1.4289   -0.0000    0.0000 N   0  0  0  0  0  0  0  0  0  0  0  0
  1  2  2  0  0  0  0
  2  3  1  0  0  0  0
  3  4  2  0  0  0  0
  4  5  1  0  0  0  0
  5  6  2  0  0  0  0
  1  6  1  0  0  0  0
  4  7  1  0  0  0  0
  7  8  2  0  0  0  0
  8  9  1  0  0  0  0
  9 10  2  0  0  0  0
 10 11  1  0  0  0  0
 11 12  2  0  0  0  0
  7 12  1  0  0  0  0
M  END
>  <Catalog ID>
Z1198157296

>  <PlateID>
1198308-R-SPFL-04

>  <Well>
E06

>  <MW (desalted)>
156.184

>  <ClogP>
1.786

>  <HBD>
0

>  <TPSA>
25.780

>  <RotBonds>
1

$$$$

            

 10 10  0  0  0  0            999 V2000
    0.0000    3.3000    0.0000 C   0  0  0  0  0  0  0  0  0  0  0  0
    0.0000    2.4750    0.0000 C   0  0  0  0  0  0  0  0  0  0  0  0
   -0.7145    2.0625    0.0000 C   0  0  0  0  0  0  0  0  0  0  0  0
    0.7145    2.0625    0.0000 N   0  0  0  0  0  0  0  0  0  0  0  0
    0.7145    1.2375    0.0000 C   0  0  0  0  0  0  0  0  0  0  0  0
    1.4289    0.8250    0.0000 C   0  0  0  0  0  0  0  0  0  0  0  0
    1.4289   -0.0000    0.0000 C   0  0  0  0  0  0  0  0  0  0  0  0
    0.7145   -0.4125    0.0000 O   0  0  0  0  0  0  0  0  0  0  0  0
    0.0000    0.0000    0.0000 C   0  0  0  0  0  0  0  0  0  0  0  0
    0.0000    0.8250    0.0000 C   0  0  0  0  0  0  0  0  0  0  0  0
  1  2  1  0  0  0  0
  2  3  1  0  0  0  0
  2  4  1  0  0  0  0
  4  5  1  0  0  0  0
  5  6  1  0  0  0  0
  6  7  1  0  0  0  0
  7  8  1  0  0  0  0
  8  9  1  0  0  0  0
  9 10  1  0  0  0  0
  5 10  1  0  0  0  0
M  END
>  <Catalog ID>
Z440603588

>  <PlateID>
1198308-R-SPFL-04

>  <Well>
E07

>  <MW (desalted)>
143.227

>  <ClogP>
-0.048

>  <HBD>
1

>  <TPSA>
21.260

>  <RotBonds>
2

$$$$

            

 11 12  0  0  0  0            999 V2000
    4.4358    1.8374    0.0000 C   0  0  0  0  0  0  0  0  0  0  0  0
    4.7938    1.0941    0.0000 C   0  0  0  0  0  0  0  0  0  0  0  0
    4.4358    0.3508    0.0000 N   0  0  0  0  0  0  0  0  0  0  0  0
    3.6315    0.1673    0.0000 C   0  0  0  0  0  0  0  0  0  0  0  0
    2.9865    0.6816    0.0000 C   0  0  0  0  0  0  0  0  0  0  0  0
    2.2720    0.2691    0.0000 C   0  0  0  0  0  0  0  0  0  0  0  0
    1.5575    0.6816    0.0000 C   0  0  0  0  0  0  0  0  0  0  0  0
    1.5575    1.5066    0.0000 C   0  0  0  0  0  0  0  0  0  0  0  0
    2.2720    1.9191    0.0000 N   0  0  0  0  0  0  0  0  0  0  0  0
    2.9865    1.5066    0.0000 C   0  0  0  0  0  0  0  0  0  0  0  0
    3.6315    2.0210    0.0000 C   0  0  0  0  0  0  0  0  0  0  0  0
  1  2  1  0  0  0  0
  2  3  1  0  0  0  0
  3  4  1  0  0  0  0
  4  5  1  0  0  0  0
  5  6  2  0  0  0  0
  6  7  1  0  0  0  0
  7  8  2  0  0  0  0
  8  9  1  0  0  0  0
  9 10  2  0  0  0  0
  5 10  1  0  0  0  0
 10 11  1  0  0  0  0
  1 11  1  0  0  0  0
M  END
>  <Catalog ID>
Z1815155714

>  <PlateID>
1198308-R-SPFL-04

>  <Well>
E08

>  <MW (desalted)>
148.205

>  <ClogP>
0.507

>  <HBD>
1

>  <TPSA>
24.920

>  <RotBonds>
0

$$$$

            

  0  0  0     0  0            999 V3000
M  V30 BEGIN CTAB
M  V30 COUNTS 13 13 0 0 0
M  V30 BEGIN ATOM
M  V30 1 O 2.6674 4.62 0 0
M  V30 2 C 1.3337 3.85 0 0
M  V30 3 O 0 4.62 0 0
M  V30 4 C 1.3337 2.31 0 0 CFG=2
M  V30 5 C 2.6674 1.54 0 0
M  V30 6 C 2.6674 -0 0 0
M  V30 7 O 1.3337 -0.77 0 0
M  V30 8 C 0 0 0 0 CFG=1
M  V30 9 C 0 1.54 0 0
M  V30 10 C -1.3337 -0.77 0 0
M  V30 11 F -2.6674 -1.54 0 0
M  V30 12 F -2.1037 0.5637 0 0
M  V30 13 F -0.5637 -2.1037 0 0
M  V30 END ATOM
M  V30 BEGIN BOND
M  V30 1 1 1 2
M  V30 2 2 2 3
M  V30 3 1 4 2 CFG=3
M  V30 4 1 4 5
M  V30 5 1 5 6
M  V30 6 1 6 7
M  V30 7 1 8 7
M  V30 8 1 8 9
M  V30 9 1 4 9
M  V30 10 1 8 10 CFG=3
M  V30 11 1 10 11
M  V30 12 1 10 12
M  V30 13 1 10 13
M  V30 END BOND
M  V30 BEGIN COLLECTION
M  V30 MDLV30/STERAC1 ATOMS=(2 4 8)
M  V30 END COLLECTION
M  V30 END CTAB
M  END
>  <Catalog ID>
Z2582765569

>  <PlateID>
1198308-R-SPFL-04

>  <Well>
E09

>  <MW (desalted)>
198.140

>  <ClogP>
0.131

>  <HBD>
1

>  <TPSA>
46.530

>  <RotBonds>
2

$$$$

            

 10 10  0  0  0  0            999 V2000
    0.1421    2.6007    0.0000 C   0  0  0  0  0  0  0  0  0  0  0  0
    0.8566    2.1882    0.0000 C   0  0  0  0  0  0  0  0  0  0  0  0
    1.5710    2.6007    0.0000 C   0  0  0  0  0  0  0  0  0  0  0  0
    0.8566    1.3632    0.0000 N   0  0  0  0  0  0  0  0  0  0  0  0
    1.5999    1.0053    0.0000 C   0  0  0  0  0  0  0  0  0  0  0  0
    1.7834    0.2009    0.0000 C   0  0  0  0  0  0  0  0  0  0  0  0
    1.2691   -0.4441    0.0000 C   0  0  0  0  0  0  0  0  0  0  0  0
    0.4441   -0.4441    0.0000 N   0  0  0  0  0  0  0  0  0  0  0  0
   -0.0703    0.2009    0.0000 C   0  0  0  0  0  0  0  0  0  0  0  0
    0.1133    1.0053    0.0000 C   0  0  0  0  0  0  0  0  0  0  0  0
  1  2  1  0  0  0  0
  2  3  1  0  0  0  0
  2  4  1  0  0  0  0
  4  5  1  0  0  0  0
  5  6  1  0  0  0  0
  6  7  1  0  0  0  0
  7  8  1  0  0  0  0
  8  9  1  0  0  0  0
  9 10  1  0  0  0  0
  4 10  1  0  0  0  0
M  END
>  <Catalog ID>
Z239604566

>  <PlateID>
1198308-R-SPFL-04

>  <Well>
E10

>  <MW (desalted)>
142.242

>  <ClogP>
0.759

>  <HBD>
1

>  <TPSA>
15.270

>  <RotBonds>
1

$$$$

            

 12 12  0  0  0  0            999 V2000
    0.1421    3.4257    0.0000 C   0  0  0  0  0  0  0  0  0  0  0  0
    0.1421    2.6007    0.0000 C   0  0  0  0  0  0  0  0  0  0  0  0
   -0.5724    2.1882    0.0000 C   0  0  0  0  0  0  0  0  0  0  0  0
    0.8566    2.1882    0.0000 C   0  0  0  0  0  0  0  0  0  0  0  0
    1.5710    2.6007    0.0000 O   0  0  0  0  0  0  0  0  0  0  0  0
    0.8566    1.3632    0.0000 N   0  0  0  0  0  0  0  0  0  0  0  0
    1.5999    1.0053    0.0000 C   0  0  0  0  0  0  0  0  0  0  0  0
    1.7834    0.2009    0.0000 C   0  0  0  0  0  0  0  0  0  0  0  0
    1.2691   -0.4441    0.0000 C   0  0  0  0  0  0  0  0  0  0  0  0
    0.4441   -0.4441    0.0000 N   0  0  0  0  0  0  0  0  0  0  0  0
   -0.0703    0.2009    0.0000 C   0  0  0  0  0  0  0  0  0  0  0  0
    0.1133    1.0053    0.0000 C   0  0  0  0  0  0  0  0  0  0  0  0
  1  2  1  0  0  0  0
  2  3  1  0  0  0  0
  2  4  1  0  0  0  0
  4  5  2  0  0  0  0
  4  6  1  0  0  0  0
  6  7  1  0  0  0  0
  7  8  1  0  0  0  0
  8  9  1  0  0  0  0
  9 10  1  0  0  0  0
 10 11  1  0  0  0  0
 11 12  1  0  0  0  0
  6 12  1  0  0  0  0
M  END
>  <Catalog ID>
Z239093084

>  <PlateID>
1198308-R-SPFL-04

>  <Well>
E11

>  <MW (desalted)>
170.252

>  <ClogP>
-0.235

>  <HBD>
1

>  <TPSA>
32.340

>  <RotBonds>
1

$$$$

            

 11 11  0  0  0  0            999 V2000
    1.2822    2.3518    0.0000 O   0  0  0  0  0  0  0  0  0  0  0  0
    0.5678    1.9393    0.0000 C   0  0  0  0  0  0  0  0  0  0  0  0
   -0.1467    2.3518    0.0000 O   0  0  0  0  0  0  0  0  0  0  0  0
    0.5678    1.1143    0.0000 C   0  0  0  0  0  0  0  0  0  0  0  0
    1.2352    0.6294    0.0000 C   0  0  0  0  0  0  0  0  0  0  0  0
    0.9803   -0.1553    0.0000 N   0  0  0  0  0  0  0  0  0  0  0  0
    0.1553   -0.1553    0.0000 N   0  0  0  0  0  0  0  0  0  0  0  0
   -0.3297   -0.8227    0.0000 C   0  0  0  0  0  0  0  0  0  0  0  0
   -1.1501   -0.7365    0.0000 C   0  0  0  0  0  0  0  0  0  0  0  0
   -1.6351   -1.4039    0.0000 F   0  0  0  0  0  0  0  0  0  0  0  0
   -0.0997    0.6294    0.0000 C   0  0  0  0  0  0  0  0  0  0  0  0
  1  2  1  0  0  0  0
  2  3  2  0  0  0  0
  2  4  1  0  0  0  0
  4  5  1  0  0  0  0
  5  6  2  0  0  0  0
  6  7  1  0  0  0  0
  7  8  1  0  0  0  0
  8  9  1  0  0  0  0
  9 10  1  0  0  0  0
  7 11  1  0  0  0  0
  4 11  2  0  0  0  0
M  END
>  <Catalog ID>
Z1416228340

>  <PlateID>
1198308-R-SPFL-04

>  <Well>
F02

>  <MW (desalted)>
158.130

>  <ClogP>
0.513

>  <HBD>
1

>  <TPSA>
55.120

>  <RotBonds>
3

$$$$

            

 11 11  0  0  0  0            999 V2000
    0.7145    2.0625    0.0000 O   0  0  0  0  0  0  0  0  0  0  0  0
    0.7145    1.2375    0.0000 C   0  0  0  0  0  0  0  0  0  0  0  0
    1.4289    0.8250    0.0000 C   0  0  0  0  0  0  0  0  0  0  0  0
    1.4289   -0.0000    0.0000 C   0  0  0  0  0  0  0  0  0  0  0  0
    0.7145   -0.4125    0.0000 C   0  0  0  0  0  0  0  0  0  0  0  0
    0.0000    0.0000    0.0000 C   0  0  0  0  0  0  0  0  0  0  0  0
    0.0000    0.8250    0.0000 N   0  0  0  0  0  0  0  0  0  0  0  0
    2.1434   -0.4125    0.0000 C   0  0  0  0  0  0  0  0  0  0  0  0
    2.8579   -0.8250    0.0000 F   0  0  0  0  0  0  0  0  0  0  0  0
    1.7309   -1.1270    0.0000 F   0  0  0  0  0  0  0  0  0  0  0  0
    2.5559    0.3020    0.0000 F   0  0  0  0  0  0  0  0  0  0  0  0
  1  2  1  0  0  0  0
  2  3  2  0  0  0  0
  3  4  1  0  0  0  0
  4  5  2  0  0  0  0
  5  6  1  0  0  0  0
  6  7  2  0  0  0  0
  2  7  1  0  0  0  0
  4  8  1  0  0  0  0
  8  9  1  0  0  0  0
  8 10  1  0  0  0  0
  8 11  1  0  0  0  0
M  END
>  <Catalog ID>
Z1741962504

>  <PlateID>
1198308-R-SPFL-04

>  <Well>
F03

>  <MW (desalted)>
163.097

>  <ClogP>
2.041

>  <HBD>
1

>  <TPSA>
33.120

>  <RotBonds>
1

$$$$

            

 13 14  0  0  0  0            999 V2000
   -0.9962   -0.6979    0.0000 N   0  0  0  0  0  0  0  0  0  0  0  0
   -0.1712   -0.6979    0.0000 S   0  0  0  0  0  0  0  0  0  0  0  0
   -0.1712   -1.5229    0.0000 O   0  0  0  0  0  0  0  0  0  0  0  0
   -0.1712    0.1271    0.0000 O   0  0  0  0  0  0  0  0  0  0  0  0
    0.6538   -0.6979    0.0000 C   0  0  0  0  0  0  0  0  0  0  0  0
    1.1387   -0.0305    0.0000 C   0  0  0  0  0  0  0  0  0  0  0  0
    1.9233   -0.2854    0.0000 N   0  0  0  0  0  0  0  0  0  0  0  0
    2.6378    0.1271    0.0000 C   0  0  0  0  0  0  0  0  0  0  0  0
    3.3523   -0.2854    0.0000 C   0  0  0  0  0  0  0  0  0  0  0  0
    3.3523   -1.1104    0.0000 C   0  0  0  0  0  0  0  0  0  0  0  0
    2.6378   -1.5229    0.0000 C   0  0  0  0  0  0  0  0  0  0  0  0
    1.9233   -1.1104    0.0000 C   0  0  0  0  0  0  0  0  0  0  0  0
    1.1387   -1.3654    0.0000 N   0  0  0  0  0  0  0  0  0  0  0  0
  1  2  1  0  0  0  0
  2  3  2  0  0  0  0
  2  4  2  0  0  0  0
  2  5  1  0  0  0  0
  5  6  2  0  0  0  0
  6  7  1  0  0  0  0
  7  8  1  0  0  0  0
  8  9  1  0  0  0  0
  9 10  1  0  0  0  0
 10 11  1  0  0  0  0
 11 12  1  0  0  0  0
  7 12  1  0  0  0  0
 12 13  2  0  0  0  0
  5 13  1  0  0  0  0
M  END
>  <Catalog ID>
Z1625067638

>  <PlateID>
1198308-R-SPFL-04

>  <Well>
F04

>  <MW (desalted)>
201.246

>  <ClogP>
0.009

>  <HBD>
1

>  <TPSA>
77.980

>  <RotBonds>
1

$$$$

            

 14 15  0  0  0  0            999 V2000
    2.0367   -0.4741    0.0000 N   0  0  0  0  0  0  0  0  0  0  0  0
    2.0367   -1.2991    0.0000 C   0  0  0  0  0  0  0  0  0  0  0  0
    2.7041   -1.7840    0.0000 N   0  0  0  0  0  0  0  0  0  0  0  0
    2.4492   -2.5687    0.0000 N   0  0  0  0  0  0  0  0  0  0  0  0
    1.6242   -2.5687    0.0000 C   0  0  0  0  0  0  0  0  0  0  0  0
    1.1393   -3.2361    0.0000 C   0  0  0  0  0  0  0  0  0  0  0  0
    0.3188   -3.1499    0.0000 C   0  0  0  0  0  0  0  0  0  0  0  0
   -0.1661   -3.8173    0.0000 C   0  0  0  0  0  0  0  0  0  0  0  0
   -0.9866   -3.7311    0.0000 C   0  0  0  0  0  0  0  0  0  0  0  0
   -1.3222   -2.9774    0.0000 C   0  0  0  0  0  0  0  0  0  0  0  0
   -0.8372   -2.3099    0.0000 C   0  0  0  0  0  0  0  0  0  0  0  0
   -0.0168   -2.3962    0.0000 C   0  0  0  0  0  0  0  0  0  0  0  0
    0.4682   -1.7287    0.0000 F   0  0  0  0  0  0  0  0  0  0  0  0
    1.3693   -1.7840    0.0000 O   0  0  0  0  0  0  0  0  0  0  0  0
  1  2  1  0  0  0  0
  2  3  2  0  0  0  0
  3  4  1  0  0  0  0
  4  5  2  0  0  0  0
  5  6  1  0  0  0  0
  6  7  1  0  0  0  0
  7  8  2  0  0  0  0
  8  9  1  0  0  0  0
  9 10  2  0  0  0  0
 10 11  1  0  0  0  0
 11 12  2  0  0  0  0
  7 12  1  0  0  0  0
 12 13  1  0  0  0  0
  5 14  1  0  0  0  0
  2 14  1  0  0  0  0
M  END
>  <Catalog ID>
Z285233940

>  <PlateID>
1198308-R-SPFL-04

>  <Well>
F05

>  <MW (desalted)>
193.178

>  <ClogP>
0.697

>  <HBD>
1

>  <TPSA>
64.940

>  <RotBonds>
2

$$$$

            

 11 12  0  0  0  0            999 V2000
    0.8838   -2.1500    0.0000 N   0  0  0  0  0  0  0  0  0  0  0  0
    1.1387   -1.3654    0.0000 C   0  0  0  0  0  0  0  0  0  0  0  0
    0.6538   -0.6979    0.0000 N   0  0  0  0  0  0  0  0  0  0  0  0
    1.1387   -0.0305    0.0000 O   0  0  0  0  0  0  0  0  0  0  0  0
    1.9233   -0.2854    0.0000 C   0  0  0  0  0  0  0  0  0  0  0  0
    2.6378    0.1271    0.0000 C   0  0  0  0  0  0  0  0  0  0  0  0
    3.3523   -0.2854    0.0000 C   0  0  0  0  0  0  0  0  0  0  0  0
    4.0668    0.1271    0.0000 Cl  0  0  0  0  0  0  0  0  0  0  0  0
    3.3523   -1.1104    0.0000 C   0  0  0  0  0  0  0  0  0  0  0  0
    2.6378   -1.5229    0.0000 C   0  0  0  0  0  0  0  0  0  0  0  0
    1.9233   -1.1104    0.0000 C   0  0  0  0  0  0  0  0  0  0  0  0
  1  2  1  0  0  0  0
  2  3  2  0  0  0  0
  3  4  1  0  0  0  0
  4  5  1  0  0  0  0
  5  6  2  0  0  0  0
  6  7  1  0  0  0  0
  7  8  1  0  0  0  0
  7  9  2  0  0  0  0
  9 10  1  0  0  0  0
 10 11  2  0  0  0  0
  2 11  1  0  0  0  0
  5 11  1  0  0  0  0
M  END
>  <Catalog ID>
Z1255490361

>  <PlateID>
1198308-R-SPFL-04

>  <Well>
F06

>  <MW (desalted)>
168.580

>  <ClogP>
1.927

>  <HBD>
1

>  <TPSA>
52.050

>  <RotBonds>
0

$$$$

            

 13 14  0  0  0  0            999 V2000
    2.0367   -0.4741    0.0000 N   0  0  0  0  0  0  0  0  0  0  0  0
    2.0367   -1.2991    0.0000 C   0  0  0  0  0  0  0  0  0  0  0  0
    2.7041   -1.7840    0.0000 N   0  0  0  0  0  0  0  0  0  0  0  0
    2.4492   -2.5687    0.0000 N   0  0  0  0  0  0  0  0  0  0  0  0
    1.6242   -2.5687    0.0000 C   0  0  0  0  0  0  0  0  0  0  0  0
    1.3693   -1.7840    0.0000 N   0  0  0  0  0  0  0  0  0  0  0  0
    0.5846   -1.5291    0.0000 C   0  0  0  0  0  0  0  0  0  0  0  0
    0.4131   -0.7221    0.0000 C   0  0  0  0  0  0  0  0  0  0  0  0
   -0.3715   -0.4672    0.0000 C   0  0  0  0  0  0  0  0  0  0  0  0
   -0.5430    0.3398    0.0000 C   0  0  0  0  0  0  0  0  0  0  0  0
    0.0701    0.8918    0.0000 C   0  0  0  0  0  0  0  0  0  0  0  0
    0.8547    0.6369    0.0000 C   0  0  0  0  0  0  0  0  0  0  0  0
    1.0262   -0.1701    0.0000 C   0  0  0  0  0  0  0  0  0  0  0  0
  1  2  1  0  0  0  0
  2  3  2  0  0  0  0
  3  4  1  0  0  0  0
  4  5  2  0  0  0  0
  5  6  1  0  0  0  0
  2  6  1  0  0  0  0
  6  7  1  0  0  0  0
  7  8  1  0  0  0  0
  8  9  2  0  0  0  0
  9 10  1  0  0  0  0
 10 11  2  0  0  0  0
 11 12  1  0  0  0  0
 12 13  2  0  0  0  0
  8 13  1  0  0  0  0
M  END
>  <Catalog ID>
Z1222278578

>  <PlateID>
1198308-R-SPFL-04

>  <Well>
F07

>  <MW (desalted)>
174.203

>  <ClogP>
0.485

>  <HBD>
1

>  <TPSA>
56.730

>  <RotBonds>
2

$$$$

            

 10 10  0  0  0  0            999 V2000
    0.0000    2.4750    0.0000 O   0  0  0  0  0  0  0  0  0  0  0  0
    0.7145    2.0625    0.0000 C   0  0  0  0  0  0  0  0  0  0  0  0
    1.4289    2.4750    0.0000 O   0  0  0  0  0  0  0  0  0  0  0  0
    0.7145    1.2375    0.0000 C   0  0  0  0  0  0  0  0  0  0  0  0
    1.4289    0.8250    0.0000 C   0  0  0  0  0  0  0  0  0  0  0  0
    1.4289   -0.0000    0.0000 C   0  0  0  0  0  0  0  0  0  0  0  0
    0.7145   -0.4125    0.0000 C   0  0  0  0  0  0  0  0  0  0  0  0
    0.0000    0.0000    0.0000 C   0  0  0  0  0  0  0  0  0  0  0  0
   -0.7145   -0.4125    0.0000 F   0  0  0  0  0  0  0  0  0  0  0  0
    0.0000    0.8250    0.0000 C   0  0  0  0  0  0  0  0  0  0  0  0
  1  2  1  0  0  0  0
  2  3  2  0  0  0  0
  2  4  1  0  0  0  0
  4  5  2  0  0  0  0
  5  6  1  0  0  0  0
  6  7  2  0  0  0  0
  7  8  1  0  0  0  0
  8  9  1  0  0  0  0
  8 10  2  0  0  0  0
  4 10  1  0  0  0  0
M  END
>  <Catalog ID>
Z104477304

>  <PlateID>
1198308-R-SPFL-04

>  <Well>
F08

>  <MW (desalted)>
140.112

>  <ClogP>
2.126

>  <HBD>
1

>  <TPSA>
37.300

>  <RotBonds>
1

$$$$

            

 11 11  0  0  0  0            999 V2000
    0.0000    3.3000    0.0000 C   0  0  0  0  0  0  0  0  0  0  0  0
    0.0000    2.4750    0.0000 C   0  0  0  0  0  0  0  0  0  0  0  0
    0.7145    2.0625    0.0000 C   0  0  0  0  0  0  0  0  0  0  0  0
    1.4289    2.4750    0.0000 C   0  0  0  0  0  0  0  0  0  0  0  0
    0.7145    1.2375    0.0000 C   0  0  0  0  0  0  0  0  0  0  0  0
    1.4289    0.8250    0.0000 N   0  0  0  0  0  0  0  0  0  0  0  0
    1.4289   -0.0000    0.0000 C   0  0  0  0  0  0  0  0  0  0  0  0
    0.7145   -0.4125    0.0000 C   0  0  0  0  0  0  0  0  0  0  0  0
    0.7145   -1.2375    0.0000 N   0  0  0  0  0  0  0  0  0  0  0  0
    0.0000    0.0000    0.0000 C   0  0  0  0  0  0  0  0  0  0  0  0
    0.0000    0.8250    0.0000 N   0  0  0  0  0  0  0  0  0  0  0  0
  1  2  1  0  0  0  0
  2  3  1  0  0  0  0
  3  4  1  0  0  0  0
  3  5  1  0  0  0  0
  5  6  2  0  0  0  0
  6  7  1  0  0  0  0
  7  8  2  0  0  0  0
  8  9  1  0  0  0  0
  8 10  1  0  0  0  0
 10 11  2  0  0  0  0
  5 11  1  0  0  0  0
M  END
>  <Catalog ID>
Z975823596

>  <PlateID>
1198308-R-SPFL-04

>  <Well>
F09

>  <MW (desalted)>
151.209

>  <ClogP>
1.632

>  <HBD>
1

>  <TPSA>
51.800

>  <RotBonds>
2

$$$$

            

 12 13  0  0  0  0            999 V2000
    0.0768   -2.3215    0.0000 O   0  0  0  0  0  0  0  0  0  0  0  0
    0.8838   -2.1500    0.0000 C   0  0  0  0  0  0  0  0  0  0  0  0
    1.4358   -2.7631    0.0000 O   0  0  0  0  0  0  0  0  0  0  0  0
    1.1387   -1.3654    0.0000 C   0  0  0  0  0  0  0  0  0  0  0  0
    0.6538   -0.6979    0.0000 O   0  0  0  0  0  0  0  0  0  0  0  0
    1.1387   -0.0305    0.0000 N   0  0  0  0  0  0  0  0  0  0  0  0
    1.9233   -0.2854    0.0000 C   0  0  0  0  0  0  0  0  0  0  0  0
    2.6378    0.1271    0.0000 C   0  0  0  0  0  0  0  0  0  0  0  0
    3.3523   -0.2854    0.0000 C   0  0  0  0  0  0  0  0  0  0  0  0
    3.3523   -1.1104    0.0000 C   0  0  0  0  0  0  0  0  0  0  0  0
    2.6378   -1.5229    0.0000 C   0  0  0  0  0  0  0  0  0  0  0  0
    1.9233   -1.1104    0.0000 C   0  0  0  0  0  0  0  0  0  0  0  0
  1  2  1  0  0  0  0
  2  3  2  0  0  0  0
  2  4  1  0  0  0  0
  4  5  1  0  0  0  0
  5  6  1  0  0  0  0
  6  7  2  0  0  0  0
  7  8  1  0  0  0  0
  8  9  1  0  0  0  0
  9 10  1  0  0  0  0
 10 11  1  0  0  0  0
 11 12  1  0  0  0  0
  4 12  2  0  0  0  0
  7 12  1  0  0  0  0
M  END
>  <Catalog ID>
Z1198275132

>  <PlateID>
1198308-R-SPFL-04

>  <Well>
F10

>  <MW (desalted)>
167.162

>  <ClogP>
1.459

>  <HBD>
1

>  <TPSA>
63.330

>  <RotBonds>
1

$$$$

            

 10 10  0  0  0  0            999 V2000
    0.5678    1.9393    0.0000 C   0  0  0  0  0  0  0  0  0  0  0  0
    0.5678    1.1143    0.0000 C   0  0  0  0  0  0  0  0  0  0  0  0
    1.2352    0.6294    0.0000 N   0  0  0  0  0  0  0  0  0  0  0  0
    0.9803   -0.1553    0.0000 C   0  0  0  0  0  0  0  0  0  0  0  0
    1.4652   -0.8227    0.0000 C   0  0  0  0  0  0  0  0  0  0  0  0
    1.1296   -1.5764    0.0000 C   0  0  0  0  0  0  0  0  0  0  0  0
    1.6145   -2.2438    0.0000 N   0  0  0  0  0  0  0  0  0  0  0  0
    0.1553   -0.1553    0.0000 S   0  0  0  0  0  0  0  0  0  0  0  0
   -0.0997    0.6294    0.0000 C   0  0  0  0  0  0  0  0  0  0  0  0
   -0.8843    0.8843    0.0000 C   0  0  0  0  0  0  0  0  0  0  0  0
  1  2  1  0  0  0  0
  2  3  1  0  0  0  0
  3  4  2  0  0  0  0
  4  5  1  0  0  0  0
  5  6  1  0  0  0  0
  6  7  1  0  0  0  0
  4  8  1  0  0  0  0
  8  9  1  0  0  0  0
  2  9  2  0  0  0  0
  9 10  1  0  0  0  0
M  END
>  <Catalog ID>
Z803066586

>  <PlateID>
1198308-R-SPFL-04

>  <Well>
F11

>  <MW (desalted)>
156.249

>  <ClogP>
0.725

>  <HBD>
1

>  <TPSA>
38.910

>  <RotBonds>
2

$$$$

            

 12 13  0  0  0  0            999 V2000
    0.0000   -0.0000    0.0000 C   0  0  0  0  0  0  0  0  0  0  0  0
    0.7145   -0.4125    0.0000 C   0  0  0  0  0  0  0  0  0  0  0  0
    1.4289    0.0000    0.0000 N   0  0  0  0  0  0  0  0  0  0  0  0
    2.1434   -0.4125    0.0000 C   0  0  0  0  0  0  0  0  0  0  0  0
    2.8579    0.0000    0.0000 C   0  0  0  0  0  0  0  0  0  0  0  0
    3.5724   -0.4125    0.0000 C   0  0  0  0  0  0  0  0  0  0  0  0
    3.5724   -1.2375    0.0000 N   0  0  0  0  0  0  0  0  0  0  0  0
    2.8579   -1.6500    0.0000 C   0  0  0  0  0  0  0  0  0  0  0  0
    2.1434   -1.2375    0.0000 C   0  0  0  0  0  0  0  0  0  0  0  0
    1.4289   -1.6500    0.0000 C   0  0  0  0  0  0  0  0  0  0  0  0
    0.7145   -1.2375    0.0000 C   0  0  0  0  0  0  0  0  0  0  0  0
    0.0000   -1.6500    0.0000 O   0  0  0  0  0  0  0  0  0  0  0  0
  1  2  1  0  0  0  0
  2  3  2  0  0  0  0
  3  4  1  0  0  0  0
  4  5  2  0  0  0  0
  5  6  1  0  0  0  0
  6  7  2  0  0  0  0
  7  8  1  0  0  0  0
  8  9  2  0  0  0  0
  4  9  1  0  0  0  0
  9 10  1  0  0  0  0
 10 11  2  0  0  0  0
  2 11  1  0  0  0  0
 11 12  1  0  0  0  0
M  END
>  <Catalog ID>
Z1255460727

>  <PlateID>
1198308-R-SPFL-04

>  <Well>
G02

>  <MW (desalted)>
160.173

>  <ClogP>
1.923

>  <HBD>
1

>  <TPSA>
46.010

>  <RotBonds>
0

$$$$

            

 10 10  0  0  0  0            999 V2000
   -0.3020    3.0584    0.0000 C   0  0  0  0  0  0  0  0  0  0  0  0
   -0.3020    2.2334    0.0000 C   0  0  0  0  0  0  0  0  0  0  0  0
    0.4125    1.8209    0.0000 O   0  0  0  0  0  0  0  0  0  0  0  0
    0.4125    0.9959    0.0000 C   0  0  0  0  0  0  0  0  0  0  0  0
    0.9959    0.4125    0.0000 C   0  0  0  0  0  0  0  0  0  0  0  0
    0.4125   -0.1709    0.0000 C   0  0  0  0  0  0  0  0  0  0  0  0
   -0.1709    0.4125    0.0000 C   0  0  0  0  0  0  0  0  0  0  0  0
    0.4125   -0.9959    0.0000 C   0  0  0  0  0  0  0  0  0  0  0  0
    1.1270   -1.4084    0.0000 O   0  0  0  0  0  0  0  0  0  0  0  0
   -0.3020   -1.4084    0.0000 O   0  0  0  0  0  0  0  0  0  0  0  0
  1  2  1  0  0  0  0
  2  3  1  0  0  0  0
  3  4  1  0  0  0  0
  4  5  1  0  0  0  0
  5  6  1  0  0  0  0
  6  7  1  0  0  0  0
  4  7  1  0  0  0  0
  6  8  1  0  0  0  0
  8  9  2  0  0  0  0
  8 10  1  0  0  0  0
M  END
>  <Catalog ID>
Z1813144098

>  <PlateID>
1198308-R-SPFL-04

>  <Well>
G03

>  <MW (desalted)>
144.168

>  <ClogP>
0.893

>  <HBD>
1

>  <TPSA>
46.530

>  <RotBonds>
3

$$$$

            

 11 12  0  0  0  0            999 V2000
    4.4358    1.8374    0.0000 C   0  0  0  0  0  0  0  0  0  0  0  0
    4.7938    1.0941    0.0000 C   0  0  0  0  0  0  0  0  0  0  0  0
    4.4358    0.3508    0.0000 O   0  0  0  0  0  0  0  0  0  0  0  0
    3.6315    0.1673    0.0000 C   0  0  0  0  0  0  0  0  0  0  0  0
    2.9865    0.6816    0.0000 C   0  0  0  0  0  0  0  0  0  0  0  0
    2.2720    0.2691    0.0000 C   0  0  0  0  0  0  0  0  0  0  0  0
    1.5575    0.6816    0.0000 C   0  0  0  0  0  0  0  0  0  0  0  0
    1.5575    1.5066    0.0000 C   0  0  0  0  0  0  0  0  0  0  0  0
    2.2720    1.9191    0.0000 C   0  0  0  0  0  0  0  0  0  0  0  0
    2.9865    1.5066    0.0000 C   0  0  0  0  0  0  0  0  0  0  0  0
    3.6315    2.0210    0.0000 N   0  0  0  0  0  0  0  0  0  0  0  0
  1  2  1  0  0  0  0
  2  3  1  0  0  0  0
  3  4  1  0  0  0  0
  4  5  1  0  0  0  0
  5  6  2  0  0  0  0
  6  7  1  0  0  0  0
  7  8  2  0  0  0  0
  8  9  1  0  0  0  0
  9 10  2  0  0  0  0
  5 10  1  0  0  0  0
 10 11  1  0  0  0  0
  1 11  1  0  0  0  0
M  END
>  <Catalog ID>
Z1198304389

>  <PlateID>
1198308-R-SPFL-04

>  <Well>
G04

>  <MW (desalted)>
149.190

>  <ClogP>
0.912

>  <HBD>
1

>  <TPSA>
21.260

>  <RotBonds>
0

$$$$

            

 15 16  0  0  0  0            999 V2000
    1.4289    0.0000    0.0000 O   0  0  0  0  0  0  0  0  0  0  0  0
    2.1434   -0.4125    0.0000 C   0  0  0  0  0  0  0  0  0  0  0  0
    2.1434   -1.2375    0.0000 C   0  0  0  0  0  0  0  0  0  0  0  0
    2.8579   -1.6500    0.0000 C   0  0  0  0  0  0  0  0  0  0  0  0
    2.8579   -2.4750    0.0000 C   0  0  0  0  0  0  0  0  0  0  0  0
    2.1434   -2.8875    0.0000 C   0  0  0  0  0  0  0  0  0  0  0  0
    2.1434   -3.7125    0.0000 O   0  0  0  0  0  0  0  0  0  0  0  0
    1.4289   -4.1250    0.0000 C   0  0  0  0  0  0  0  0  0  0  0  0
    1.4289   -4.9500    0.0000 C   0  0  0  0  0  0  0  0  0  0  0  0
    0.7145   -5.3625    0.0000 C   0  0  0  0  0  0  0  0  0  0  0  0
   -0.0000   -4.9500    0.0000 C   0  0  0  0  0  0  0  0  0  0  0  0
    0.0000   -4.1250    0.0000 N   0  0  0  0  0  0  0  0  0  0  0  0
    0.7145   -3.7125    0.0000 C   0  0  0  0  0  0  0  0  0  0  0  0
    1.4289   -2.4750    0.0000 C   0  0  0  0  0  0  0  0  0  0  0  0
    1.4289   -1.6500    0.0000 C   0  0  0  0  0  0  0  0  0  0  0  0
  1  2  1  0  0  0  0
  2  3  1  0  0  0  0
  3  4  2  0  0  0  0
  4  5  1  0  0  0  0
  5  6  2  0  0  0  0
  6  7  1  0  0  0  0
  7  8  1  0  0  0  0
  8  9  2  0  0  0  0
  9 10  1  0  0  0  0
 10 11  2  0  0  0  0
 11 12  1  0  0  0  0
 12 13  2  0  0  0  0
  8 13  1  0  0  0  0
  6 14  1  0  0  0  0
 14 15  2  0  0  0  0
  3 15  1  0  0  0  0
M  END
>  <Catalog ID>
Z381429280

>  <PlateID>
1198308-R-SPFL-04

>  <Well>
G05

>  <MW (desalted)>
201.221

>  <ClogP>
1.705

>  <HBD>
1

>  <TPSA>
42.350

>  <RotBonds>
3

$$$$

            

 13 14  0  0  0  0            999 V2000
    0.7145   -0.4125    0.0000 O   0  0  0  0  0  0  0  0  0  0  0  0
    0.7145   -1.2375    0.0000 C   0  0  0  0  0  0  0  0  0  0  0  0
    1.4289   -1.6500    0.0000 C   0  0  0  0  0  0  0  0  0  0  0  0
    1.4289   -2.4750    0.0000 C   0  0  0  0  0  0  0  0  0  0  0  0
    0.7145   -2.8875    0.0000 C   0  0  0  0  0  0  0  0  0  0  0  0
    0.0000   -2.4750    0.0000 C   0  0  0  0  0  0  0  0  0  0  0  0
    0.0000   -1.6500    0.0000 N   0  0  0  0  0  0  0  0  0  0  0  0
   -0.7145   -1.2375    0.0000 C   0  0  0  0  0  0  0  0  0  0  0  0
   -1.4289   -1.6500    0.0000 C   0  0  0  0  0  0  0  0  0  0  0  0
   -2.1434   -1.2375    0.0000 C   0  0  0  0  0  0  0  0  0  0  0  0
   -2.1434   -0.4125    0.0000 C   0  0  0  0  0  0  0  0  0  0  0  0
   -1.4289    0.0000    0.0000 C   0  0  0  0  0  0  0  0  0  0  0  0
   -0.7145   -0.4125    0.0000 C   0  0  0  0  0  0  0  0  0  0  0  0
  1  2  2  0  0  0  0
  2  3  1  0  0  0  0
  3  4  1  0  0  0  0
  4  5  1  0  0  0  0
  5  6  1  0  0  0  0
  6  7  1  0  0  0  0
  2  7  1  0  0  0  0
  7  8  1  0  0  0  0
  8  9  2  0  0  0  0
  9 10  1  0  0  0  0
 10 11  2  0  0  0  0
 11 12  1  0  0  0  0
 12 13  2  0  0  0  0
  8 13  1  0  0  0  0
M  END
>  <Catalog ID>
Z118333670

>  <PlateID>
1198308-R-SPFL-04

>  <Well>
G06

>  <MW (desalted)>
175.227

>  <ClogP>
2.661

>  <HBD>
0

>  <TPSA>
20.310

>  <RotBonds>
1

$$$$

            

 15 16  0  0  0  0            999 V2000
   -0.7145   -2.0625    0.0000 N   0  0  0  0  0  0  0  0  0  0  0  0
    0.0000   -1.6500    0.0000 S   0  0  0  0  0  0  0  0  0  0  0  0
    0.4125   -2.3645    0.0000 O   0  0  0  0  0  0  0  0  0  0  0  0
   -0.4125   -0.9355    0.0000 O   0  0  0  0  0  0  0  0  0  0  0  0
    0.7145   -1.2375    0.0000 C   0  0  0  0  0  0  0  0  0  0  0  0
    0.7145   -0.4125    0.0000 C   0  0  0  0  0  0  0  0  0  0  0  0
    1.4289    0.0000    0.0000 N   0  0  0  0  0  0  0  0  0  0  0  0
    2.1434   -0.4125    0.0000 C   0  0  0  0  0  0  0  0  0  0  0  0
    2.8579    0.0000    0.0000 C   0  0  0  0  0  0  0  0  0  0  0  0
    3.5724   -0.4125    0.0000 C   0  0  0  0  0  0  0  0  0  0  0  0
    3.5724   -1.2375    0.0000 C   0  0  0  0  0  0  0  0  0  0  0  0
    4.2868   -1.6500    0.0000 F   0  0  0  0  0  0  0  0  0  0  0  0
    2.8579   -1.6500    0.0000 C   0  0  0  0  0  0  0  0  0  0  0  0
    2.1434   -1.2375    0.0000 C   0  0  0  0  0  0  0  0  0  0  0  0
    1.4289   -1.6500    0.0000 C   0  0  0  0  0  0  0  0  0  0  0  0
  1  2  1  0  0  0  0
  2  3  2  0  0  0  0
  2  4  2  0  0  0  0
  2  5  1  0  0  0  0
  5  6  1  0  0  0  0
  6  7  2  0  0  0  0
  7  8  1  0  0  0  0
  8  9  2  0  0  0  0
  9 10  1  0  0  0  0
 10 11  2  0  0  0  0
 11 12  1  0  0  0  0
 11 13  1  0  0  0  0
 13 14  2  0  0  0  0
  8 14  1  0  0  0  0
 14 15  1  0  0  0  0
  5 15  2  0  0  0  0
M  END
>  <Catalog ID>
Z1836608938

>  <PlateID>
1198308-R-SPFL-04

>  <Well>
G07

>  <MW (desalted)>
226.227

>  <ClogP>
1.303

>  <HBD>
1

>  <TPSA>
73.050

>  <RotBonds>
1

$$$$

            

 11 11  0  0  0  0            999 V2000
    1.5710    2.6007    0.0000 C   0  0  0  0  0  0  0  0  0  0  0  0
    0.8566    2.1882    0.0000 C   0  0  0  0  0  0  0  0  0  0  0  0
    0.1421    2.6007    0.0000 C   0  0  0  0  0  0  0  0  0  0  0  0
    0.8566    1.3632    0.0000 C   0  0  0  0  0  0  0  0  0  0  0  0
    1.5999    1.0053    0.0000 C   0  0  0  0  0  0  0  0  0  0  0  0
    1.7834    0.2009    0.0000 C   0  0  0  0  0  0  0  0  0  0  0  0
    1.2691   -0.4441    0.0000 N   0  0  0  0  0  0  0  0  0  0  0  0
    0.4441   -0.4441    0.0000 C   0  0  0  0  0  0  0  0  0  0  0  0
    0.0861   -1.1874    0.0000 O   0  0  0  0  0  0  0  0  0  0  0  0
   -0.0703    0.2009    0.0000 C   0  0  0  0  0  0  0  0  0  0  0  0
    0.1133    1.0053    0.0000 C   0  0  0  0  0  0  0  0  0  0  0  0
  1  2  1  0  0  0  0
  2  3  1  0  0  0  0
  2  4  1  0  0  0  0
  4  5  1  0  0  0  0
  5  6  1  0  0  0  0
  6  7  1  0  0  0  0
  7  8  1  0  0  0  0
  8  9  2  0  0  0  0
  8 10  1  0  0  0  0
 10 11  1  0  0  0  0
  4 11  1  0  0  0  0
M  END
>  <Catalog ID>
Z1197664821

>  <PlateID>
1198308-R-SPFL-04

>  <Well>
G08

>  <MW (desalted)>
155.237

>  <ClogP>
1.592

>  <HBD>
1

>  <TPSA>
29.100

>  <RotBonds>
1

$$$$

            

 15 15  0  0  0  0            999 V2000
    0.0000    0.0000    0.0000 Cl  0  0  0  0  0  0  0  0  0  0  0  0
    2.4353    2.2732    0.0000 C   0  0  0  0  0  0  0  0  0  0  0  0
    2.4353    1.4482    0.0000 C   0  0  0  0  0  0  0  0  0  0  0  0
    3.1027    0.9633    0.0000 N   0  0  0  0  0  0  0  0  0  0  0  0
    2.8478    0.1786    0.0000 C   0  0  0  0  0  0  0  0  0  0  0  0
    2.0228    0.1786    0.0000 N   0  0  0  0  0  0  0  0  0  0  0  0
    1.7679    0.9633    0.0000 O   0  0  0  0  0  0  0  0  0  0  0  0
    3.3327   -0.4888    0.0000 C   0  0  0  0  0  0  0  0  0  0  0  0
    2.5741   -0.8130    0.0000 N   0  0  0  0  0  0  0  0  0  0  0  0
    3.8755    0.1325    0.0000 C   0  0  0  0  0  0  0  0  0  0  0  0
    4.6997    0.0955    0.0000 C   0  0  0  0  0  0  0  0  0  0  0  0
    5.1846   -0.5720    0.0000 C   0  0  0  0  0  0  0  0  0  0  0  0
    4.9651   -1.3672    0.0000 C   0  0  0  0  0  0  0  0  0  0  0  0
    4.2065   -1.6915    0.0000 C   0  0  0  0  0  0  0  0  0  0  0  0
    3.4800   -1.3005    0.0000 C   0  0  0  0  0  0  0  0  0  0  0  0
  2  3  1  0  0  0  0
  3  4  2  0  0  0  0
  4  5  1  0  0  0  0
  5  6  2  0  0  0  0
  6  7  1  0  0  0  0
  3  7  1  0  0  0  0
  5  8  1  0  0  0  0
  8  9  1  0  0  0  0
  8 10  1  0  0  0  0
 10 11  1  0  0  0  0
 11 12  1  0  0  0  0
 12 13  1  0  0  0  0
 13 14  1  0  0  0  0
 14 15  1  0  0  0  0
  8 15  1  0  0  0  0
M  END
>  <Catalog ID>
Z339261962

>  <PlateID>
1198308-R-SPFL-04

>  <Well>
G09

>  <MW (desalted)>
195.261

>  <ClogP>
1.295

>  <HBD>
1

>  <TPSA>
64.940

>  <RotBonds>
1

$$$$

            

 11 12  0  0  0  0            999 V2000
    3.2789    2.0625    0.0000 C   0  0  0  0  0  0  0  0  0  0  0  0
    3.2789    1.2375    0.0000 C   0  0  0  0  0  0  0  0  0  0  0  0
    3.9934    0.8250    0.0000 C   0  0  0  0  0  0  0  0  0  0  0  0
    3.9934    0.0000    0.0000 C   0  0  0  0  0  0  0  0  0  0  0  0
    3.2789   -0.4125    0.0000 C   0  0  0  0  0  0  0  0  0  0  0  0
    2.5645    0.0000    0.0000 C   0  0  0  0  0  0  0  0  0  0  0  0
    1.7798   -0.2549    0.0000 N   0  0  0  0  0  0  0  0  0  0  0  0
    1.2949    0.4125    0.0000 C   0  0  0  0  0  0  0  0  0  0  0  0
    0.4699    0.4125    0.0000 N   0  0  0  0  0  0  0  0  0  0  0  0
    1.7798    1.0799    0.0000 O   0  0  0  0  0  0  0  0  0  0  0  0
    2.5645    0.8250    0.0000 C   0  0  0  0  0  0  0  0  0  0  0  0
  1  2  1  0  0  0  0
  2  3  1  0  0  0  0
  3  4  2  0  0  0  0
  4  5  1  0  0  0  0
  5  6  2  0  0  0  0
  6  7  1  0  0  0  0
  7  8  2  0  0  0  0
  8  9  1  0  0  0  0
  8 10  1  0  0  0  0
 10 11  1  0  0  0  0
  2 11  2  0  0  0  0
  6 11  1  0  0  0  0
M  END
>  <Catalog ID>
Z1251362841

>  <PlateID>
1198308-R-SPFL-04

>  <Well>
G10

>  <MW (desalted)>
148.162

>  <ClogP>
1.587

>  <HBD>
1

>  <TPSA>
52.050

>  <RotBonds>
0

$$$$

            

 11 12  0  0  0  0            999 V2000
    1.4289   -2.4750    0.0000 F   0  0  0  0  0  0  0  0  0  0  0  0
    1.4289   -1.6500    0.0000 C   0  0  0  0  0  0  0  0  0  0  0  0
    0.7145   -1.2375    0.0000 C   0  0  0  0  0  0  0  0  0  0  0  0
    0.7145   -0.4125    0.0000 C   0  0  0  0  0  0  0  0  0  0  0  0
    1.4289    0.0000    0.0000 C   0  0  0  0  0  0  0  0  0  0  0  0
    2.1434   -0.4125    0.0000 C   0  0  0  0  0  0  0  0  0  0  0  0
    2.8579    0.0000    0.0000 O   0  0  0  0  0  0  0  0  0  0  0  0
    3.5724   -0.4125    0.0000 C   0  0  0  0  0  0  0  0  0  0  0  0
    3.5724   -1.2375    0.0000 C   0  0  0  0  0  0  0  0  0  0  0  0
    2.8579   -1.6500    0.0000 N   0  0  0  0  0  0  0  0  0  0  0  0
    2.1434   -1.2375    0.0000 C   0  0  0  0  0  0  0  0  0  0  0  0
  1  2  1  0  0  0  0
  2  3  2  0  0  0  0
  3  4  1  0  0  0  0
  4  5  2  0  0  0  0
  5  6  1  0  0  0  0
  6  7  1  0  0  0  0
  7  8  1  0  0  0  0
  8  9  1  0  0  0  0
  9 10  1  0  0  0  0
 10 11  1  0  0  0  0
  2 11  1  0  0  0  0
  6 11  2  0  0  0  0
M  END
>  <Catalog ID>
Z1255361602

>  <PlateID>
1198308-R-SPFL-04

>  <Well>
G11

>  <MW (desalted)>
153.154

>  <ClogP>
2.028

>  <HBD>
1

>  <TPSA>
21.260

>  <RotBonds>
0

$$$$

            

 12 11  0  0  0  0            999 V2000
    0.0000    0.0000    0.0000 Cl  0  0  0  0  0  0  0  0  0  0  0  0
    2.6002    1.9875    0.0000 C   0  0  0  0  0  0  0  0  0  0  0  0
    3.3147    1.5750    0.0000 O   0  0  0  0  0  0  0  0  0  0  0  0
    3.3147    0.7500    0.0000 C   0  0  0  0  0  0  0  0  0  0  0  0
    4.0291    0.3375    0.0000 N   0  0  0  0  0  0  0  0  0  0  0  0
    4.0291   -0.4875    0.0000 C   0  0  0  0  0  0  0  0  0  0  0  0
    3.3147   -0.9000    0.0000 C   0  0  0  0  0  0  0  0  0  0  0  0
    3.3147   -1.7250    0.0000 C   0  0  0  0  0  0  0  0  0  0  0  0
    4.0291   -2.1375    0.0000 N   0  0  0  0  0  0  0  0  0  0  0  0
    2.6002   -0.4875    0.0000 C   0  0  0  0  0  0  0  0  0  0  0  0
    2.6002    0.3375    0.0000 C   0  0  0  0  0  0  0  0  0  0  0  0
    1.8857    0.7500    0.0000 Cl  0  0  0  0  0  0  0  0  0  0  0  0
  2  3  1  0  0  0  0
  3  4  1  0  0  0  0
  4  5  2  0  0  0  0
  5  6  1  0  0  0  0
  6  7  2  0  0  0  0
  7  8  1  0  0  0  0
  8  9  1  0  0  0  0
  7 10  1  0  0  0  0
 10 11  2  0  0  0  0
  4 11  1  0  0  0  0
 11 12  1  0  0  0  0
M  END
>  <Catalog ID>
Z2235386853

>  <PlateID>
1198308-R-SPFL-04

>  <Well>
H02

>  <MW (desalted)>
172.612

>  <ClogP>
0.941

>  <HBD>
1

>  <TPSA>
48.140

>  <RotBonds>
2

$$$$

            

 14 14  0  0  0  0            999 V2000
    0.0000    0.0000    0.0000 Cl  0  0  0  0  0  0  0  0  0  0  0  0
    4.8030    2.5508    0.0000 N   0  0  0  0  0  0  0  0  0  0  0  0
    4.0885    2.1383    0.0000 C   0  0  0  0  0  0  0  0  0  0  0  0
    4.0885    1.3133    0.0000 C   0  0  0  0  0  0  0  0  0  0  0  0
    4.7560    0.8284    0.0000 C   0  0  0  0  0  0  0  0  0  0  0  0
    4.5010    0.0438    0.0000 C   0  0  0  0  0  0  0  0  0  0  0  0
    3.6760    0.0438    0.0000 C   0  0  0  0  0  0  0  0  0  0  0  0
    3.4211    0.8284    0.0000 O   0  0  0  0  0  0  0  0  0  0  0  0
    3.1911   -0.6237    0.0000 C   0  0  0  0  0  0  0  0  0  0  0  0
    3.5267   -1.3774    0.0000 C   0  0  0  0  0  0  0  0  0  0  0  0
    3.0418   -2.0448    0.0000 C   0  0  0  0  0  0  0  0  0  0  0  0
    2.2213   -1.9586    0.0000 C   0  0  0  0  0  0  0  0  0  0  0  0
    1.8857   -1.2049    0.0000 C   0  0  0  0  0  0  0  0  0  0  0  0
    2.3706   -0.5374    0.0000 C   0  0  0  0  0  0  0  0  0  0  0  0
  2  3  1  0  0  0  0
  3  4  1  0  0  0  0
  4  5  2  0  0  0  0
  5  6  1  0  0  0  0
  6  7  2  0  0  0  0
  7  8  1  0  0  0  0
  4  8  1  0  0  0  0
  7  9  1  0  0  0  0
  9 10  2  0  0  0  0
 10 11  1  0  0  0  0
 11 12  2  0  0  0  0
 12 13  1  0  0  0  0
 13 14  2  0  0  0  0
  9 14  1  0  0  0  0
M  END
>  <Catalog ID>
Z1263716831

>  <PlateID>
1198308-R-SPFL-04

>  <Well>
H03

>  <MW (desalted)>
173.211

>  <ClogP>
2.368

>  <HBD>
1

>  <TPSA>
39.160

>  <RotBonds>
2

$$$$

            

 13 14  0  0  0  0            999 V2000
   -0.1712   -0.6979    0.0000 C   0  0  0  0  0  0  0  0  0  0  0  0
    0.6538   -0.6979    0.0000 C   0  0  0  0  0  0  0  0  0  0  0  0
    1.1387   -0.0305    0.0000 N   0  0  0  0  0  0  0  0  0  0  0  0
    1.9233   -0.2854    0.0000 C   0  0  0  0  0  0  0  0  0  0  0  0
    2.6378    0.1271    0.0000 C   0  0  0  0  0  0  0  0  0  0  0  0
    3.3523   -0.2854    0.0000 C   0  0  0  0  0  0  0  0  0  0  0  0
    3.3523   -1.1104    0.0000 C   0  0  0  0  0  0  0  0  0  0  0  0
    2.6378   -1.5229    0.0000 C   0  0  0  0  0  0  0  0  0  0  0  0
    1.9233   -1.1104    0.0000 C   0  0  0  0  0  0  0  0  0  0  0  0
    1.1387   -1.3654    0.0000 O   0  0  0  0  0  0  0  0  0  0  0  0
    4.0668    0.1271    0.0000 C   0  0  0  0  0  0  0  0  0  0  0  0
    4.0668    0.9521    0.0000 O   0  0  0  0  0  0  0  0  0  0  0  0
    4.7812   -0.2854    0.0000 O   0  0  0  0  0  0  0  0  0  0  0  0
  1  2  1  0  0  0  0
  2  3  2  0  0  0  0
  3  4  1  0  0  0  0
  4  5  2  0  0  0  0
  5  6  1  0  0  0  0
  6  7  2  0  0  0  0
  7  8  1  0  0  0  0
  8  9  2  0  0  0  0
  4  9  1  0  0  0  0
  9 10  1  0  0  0  0
  2 10  1  0  0  0  0
  6 11  1  0  0  0  0
 11 12  2  0  0  0  0
 11 13  1  0  0  0  0
M  END
>  <Catalog ID>
Z1198224457

>  <PlateID>
1198308-R-SPFL-04

>  <Well>
H04

>  <MW (desalted)>
177.157

>  <ClogP>
1.735

>  <HBD>
1

>  <TPSA>
63.330

>  <RotBonds>
1

$$$$

            

 11 12  0  0  0  0            999 V2000
    1.2564   -0.1802    0.0000 Cl  0  0  0  0  0  0  0  0  0  0  0  0
    1.2564   -1.0052    0.0000 C   0  0  0  0  0  0  0  0  0  0  0  0
    1.9239   -1.4901    0.0000 C   0  0  0  0  0  0  0  0  0  0  0  0
    1.6689   -2.2748    0.0000 N   0  0  0  0  0  0  0  0  0  0  0  0
    0.8439   -2.2748    0.0000 N   0  0  0  0  0  0  0  0  0  0  0  0
    0.5890   -1.4901    0.0000 C   0  0  0  0  0  0  0  0  0  0  0  0
    0.3590   -2.9422    0.0000 C   0  0  0  0  0  0  0  0  0  0  0  0
    0.6139   -3.7268    0.0000 C   0  0  0  0  0  0  0  0  0  0  0  0
   -0.0535   -4.2117    0.0000 C   0  0  0  0  0  0  0  0  0  0  0  0
   -0.7209   -3.7268    0.0000 N   0  0  0  0  0  0  0  0  0  0  0  0
   -0.4660   -2.9422    0.0000 C   0  0  0  0  0  0  0  0  0  0  0  0
  1  2  1  0  0  0  0
  2  3  1  0  0  0  0
  3  4  2  0  0  0  0
  4  5  1  0  0  0  0
  5  6  1  0  0  0  0
  2  6  2  0  0  0  0
  5  7  1  0  0  0  0
  7  8  1  0  0  0  0
  8  9  1  0  0  0  0
  9 10  1  0  0  0  0
 10 11  1  0  0  0  0
  7 11  1  0  0  0  0
M  END
>  <Catalog ID>
Z975915948

>  <PlateID>
1198308-R-SPFL-04

>  <Well>
H05

>  <MW (desalted)>
171.627

>  <ClogP>
0.635

>  <HBD>
1

>  <TPSA>
29.850

>  <RotBonds>
1

$$$$

            

 10 10  0  0  0  0            999 V2000
    0.5678    1.9393    0.0000 N   0  0  0  0  0  0  0  0  0  0  0  0
    0.5678    1.1143    0.0000 C   0  0  0  0  0  0  0  0  0  0  0  0
    1.2352    0.6294    0.0000 C   0  0  0  0  0  0  0  0  0  0  0  0
    0.9803   -0.1553    0.0000 C   0  0  0  0  0  0  0  0  0  0  0  0
    0.1553   -0.1553    0.0000 N   0  0  0  0  0  0  0  0  0  0  0  0
   -0.3297   -0.8227    0.0000 C   0  0  0  0  0  0  0  0  0  0  0  0
   -1.1501   -0.7365    0.0000 C   0  0  0  0  0  0  0  0  0  0  0  0
   -1.6351   -1.4039    0.0000 F   0  0  0  0  0  0  0  0  0  0  0  0
   -1.4857    0.0172    0.0000 F   0  0  0  0  0  0  0  0  0  0  0  0
   -0.0997    0.6294    0.0000 N   0  0  0  0  0  0  0  0  0  0  0  0
  1  2  1  0  0  0  0
  2  3  1  0  0  0  0
  3  4  2  0  0  0  0
  4  5  1  0  0  0  0
  5  6  1  0  0  0  0
  6  7  1  0  0  0  0
  7  8  1  0  0  0  0
  7  9  1  0  0  0  0
  5 10  1  0  0  0  0
  2 10  2  0  0  0  0
M  END
>  <Catalog ID>
Z608352698

>  <PlateID>
1198308-R-SPFL-04

>  <Well>
H06

>  <MW (desalted)>
147.126

>  <ClogP>
0.047

>  <HBD>
1

>  <TPSA>
43.840

>  <RotBonds>
2

$$$$

            

 11 11  0  0  0  0            999 V2000
    0.7145    2.0625    0.0000 N   0  0  0  0  0  0  0  0  0  0  0  0
    0.7145    1.2375    0.0000 C   0  0  0  0  0  0  0  0  0  0  0  0
    1.4289    0.8250    0.0000 C   0  0  0  0  0  0  0  0  0  0  0  0
    1.4289   -0.0000    0.0000 C   0  0  0  0  0  0  0  0  0  0  0  0
    0.7145   -0.4125    0.0000 C   0  0  0  0  0  0  0  0  0  0  0  0
    0.0000    0.0000    0.0000 C   0  0  0  0  0  0  0  0  0  0  0  0
    0.0000    0.8250    0.0000 N   0  0  0  0  0  0  0  0  0  0  0  0
   -0.7145   -0.4125    0.0000 C   0  0  0  0  0  0  0  0  0  0  0  0
   -1.4289   -0.8250    0.0000 F   0  0  0  0  0  0  0  0  0  0  0  0
   -1.1270    0.3020    0.0000 F   0  0  0  0  0  0  0  0  0  0  0  0
   -0.3020   -1.1270    0.0000 F   0  0  0  0  0  0  0  0  0  0  0  0
  1  2  1  0  0  0  0
  2  3  2  0  0  0  0
  3  4  1  0  0  0  0
  4  5  2  0  0  0  0
  5  6  1  0  0  0  0
  6  7  2  0  0  0  0
  2  7  1  0  0  0  0
  6  8  1  0  0  0  0
  8  9  1  0  0  0  0
  8 10  1  0  0  0  0
  8 11  1  0  0  0  0
M  END
>  <Catalog ID>
Z858035348

>  <PlateID>
1198308-R-SPFL-04

>  <Well>
H07

>  <MW (desalted)>
162.113

>  <ClogP>
1.417

>  <HBD>
1

>  <TPSA>
38.910

>  <RotBonds>
1

$$$$

            

 10 11  0  0  0  0            999 V2000
    3.2789    2.0625    0.0000 Cl  0  0  0  0  0  0  0  0  0  0  0  0
    3.2789    1.2375    0.0000 C   0  0  0  0  0  0  0  0  0  0  0  0
    3.9934    0.8250    0.0000 C   0  0  0  0  0  0  0  0  0  0  0  0
    3.9934    0.0000    0.0000 C   0  0  0  0  0  0  0  0  0  0  0  0
    3.2789   -0.4125    0.0000 C   0  0  0  0  0  0  0  0  0  0  0  0
    2.5645    0.0000    0.0000 C   0  0  0  0  0  0  0  0  0  0  0  0
    1.7798   -0.2549    0.0000 C   0  0  0  0  0  0  0  0  0  0  0  0
    1.2949    0.4125    0.0000 N   0  0  0  0  0  0  0  0  0  0  0  0
    1.7798    1.0799    0.0000 C   0  0  0  0  0  0  0  0  0  0  0  0
    2.5645    0.8250    0.0000 C   0  0  0  0  0  0  0  0  0  0  0  0
  1  2  1  0  0  0  0
  2  3  2  0  0  0  0
  3  4  1  0  0  0  0
  4  5  2  0  0  0  0
  5  6  1  0  0  0  0
  6  7  1  0  0  0  0
  7  8  1  0  0  0  0
  8  9  1  0  0  0  0
  9 10  1  0  0  0  0
  6 10  2  0  0  0  0
  2 10  1  0  0  0  0
M  END
>  <Catalog ID>
Z1198176551

>  <PlateID>
1198308-R-SPFL-04

>  <Well>
H08

>  <MW (desalted)>
153.609

>  <ClogP>
1.749

>  <HBD>
1

>  <TPSA>
12.030

>  <RotBonds>
0

$$$$

            

 12 12  0  0  0  0            999 V2000
    0.0000    0.0000    0.0000 Cl  0  0  0  0  0  0  0  0  0  0  0  0
    2.3571    2.6680    0.0000 C   0  0  0  0  0  0  0  0  0  0  0  0
    2.8421    2.0006    0.0000 N   0  0  0  0  0  0  0  0  0  0  0  0
    2.5065    1.2469    0.0000 C   0  0  0  0  0  0  0  0  0  0  0  0
    2.9914    0.5795    0.0000 C   0  0  0  0  0  0  0  0  0  0  0  0
    3.8164    0.5795    0.0000 N   0  0  0  0  0  0  0  0  0  0  0  0
    4.0714   -0.2051    0.0000 O   0  0  0  0  0  0  0  0  0  0  0  0
    3.4039   -0.6901    0.0000 C   0  0  0  0  0  0  0  0  0  0  0  0
    2.7365   -0.2051    0.0000 N   0  0  0  0  0  0  0  0  0  0  0  0
    3.4039   -1.5151    0.0000 C   0  0  0  0  0  0  0  0  0  0  0  0
    3.8164   -2.2295    0.0000 C   0  0  0  0  0  0  0  0  0  0  0  0
    2.9914   -2.2295    0.0000 C   0  0  0  0  0  0  0  0  0  0  0  0
  2  3  1  0  0  0  0
  3  4  1  0  0  0  0
  4  5  1  0  0  0  0
  5  6  2  0  0  0  0
  6  7  1  0  0  0  0
  7  8  1  0  0  0  0
  8  9  2  0  0  0  0
  5  9  1  0  0  0  0
  8 10  1  0  0  0  0
 10 11  1  0  0  0  0
 11 12  1  0  0  0  0
 10 12  1  0  0  0  0
M  END
>  <Catalog ID>
Z1716181968

>  <PlateID>
1198308-R-SPFL-04

>  <Well>
H09

>  <MW (desalted)>
153.182

>  <ClogP>
-0.425

>  <HBD>
1

>  <TPSA>
50.950

>  <RotBonds>
3

$$$$

            

 11 12  0  0  0  0            999 V2000
   -0.5837   -1.4124    0.0000 C   0  0  0  0  0  0  0  0  0  0  0  0
   -0.1712   -0.6979    0.0000 N   0  0  0  0  0  0  0  0  0  0  0  0
    0.6538   -0.6979    0.0000 C   0  0  0  0  0  0  0  0  0  0  0  0
    1.1387   -0.0305    0.0000 N   0  0  0  0  0  0  0  0  0  0  0  0
    1.9233   -0.2854    0.0000 C   0  0  0  0  0  0  0  0  0  0  0  0
    2.6378    0.1271    0.0000 C   0  0  0  0  0  0  0  0  0  0  0  0
    3.3523   -0.2854    0.0000 C   0  0  0  0  0  0  0  0  0  0  0  0
    3.3523   -1.1104    0.0000 C   0  0  0  0  0  0  0  0  0  0  0  0
    2.6378   -1.5229    0.0000 C   0  0  0  0  0  0  0  0  0  0  0  0
    1.9233   -1.1104    0.0000 C   0  0  0  0  0  0  0  0  0  0  0  0
    1.1387   -1.3654    0.0000 O   0  0  0  0  0  0  0  0  0  0  0  0
  1  2  1  0  0  0  0
  2  3  1  0  0  0  0
  3  4  2  0  0  0  0
  4  5  1  0  0  0  0
  5  6  2  0  0  0  0
  6  7  1  0  0  0  0
  7  8  2  0  0  0  0
  8  9  1  0  0  0  0
  9 10  2  0  0  0  0
  5 10  1  0  0  0  0
 10 11  1  0  0  0  0
  3 11  1  0  0  0  0
M  END
>  <Catalog ID>
Z235341203

>  <PlateID>
1198308-R-SPFL-04

>  <Well>
H10

>  <MW (desalted)>
148.162

>  <ClogP>
1.886

>  <HBD>
1

>  <TPSA>
38.060

>  <RotBonds>
1

$$$$

            

 12 11  0  0  0  0            999 V2000
    0.0000    0.0000    0.0000 Cl  0  0  0  0  0  0  0  0  0  0  0  0
    2.4823    1.9875    0.0000 C   0  0  0  0  0  0  0  0  0  0  0  0
    3.1968    1.5750    0.0000 O   0  0  0  0  0  0  0  0  0  0  0  0
    3.1968    0.7500    0.0000 C   0  0  0  0  0  0  0  0  0  0  0  0
    3.9113    0.3375    0.0000 C   0  0  0  0  0  0  0  0  0  0  0  0
    3.9113   -0.4875    0.0000 C   0  0  0  0  0  0  0  0  0  0  0  0
    3.1968   -0.9000    0.0000 C   0  0  0  0  0  0  0  0  0  0  0  0
    3.1968   -1.7250    0.0000 C   0  0  0  0  0  0  0  0  0  0  0  0
    3.9113   -2.1375    0.0000 N   0  0  0  0  0  0  0  0  0  0  0  0
    2.4823   -0.4875    0.0000 C   0  0  0  0  0  0  0  0  0  0  0  0
    2.4823    0.3375    0.0000 C   0  0  0  0  0  0  0  0  0  0  0  0
    1.7679    0.7500    0.0000 F   0  0  0  0  0  0  0  0  0  0  0  0
  2  3  1  0  0  0  0
  3  4  1  0  0  0  0
  4  5  2  0  0  0  0
  5  6  1  0  0  0  0
  6  7  2  0  0  0  0
  7  8  1  0  0  0  0
  8  9  1  0  0  0  0
  7 10  1  0  0  0  0
 10 11  2  0  0  0  0
  4 11  1  0  0  0  0
 11 12  1  0  0  0  0
M  END
>  <Catalog ID>
Z355423270

>  <PlateID>
1198308-R-SPFL-04

>  <Well>
H11

>  <MW (desalted)>
155.170

>  <ClogP>
1.096

>  <HBD>
1

>  <TPSA>
35.250

>  <RotBonds>
2

$$$$

            

 11 12  0  0  0  0            999 V2000
    1.0396   -1.0396    0.0000 N   0  0  0  0  0  0  0  0  0  0  0  0
    0.7846   -0.2549    0.0000 C   0  0  0  0  0  0  0  0  0  0  0  0
    0.0000   -0.0000    0.0000 C   0  0  0  0  0  0  0  0  0  0  0  0
   -0.0000    0.8250    0.0000 C   0  0  0  0  0  0  0  0  0  0  0  0
    0.7846    1.0799    0.0000 C   0  0  0  0  0  0  0  0  0  0  0  0
    1.2695    0.4125    0.0000 C   0  0  0  0  0  0  0  0  0  0  0  0
    1.6820    1.1270    0.0000 C   0  0  0  0  0  0  0  0  0  0  0  0
    2.5070    1.1270    0.0000 C   0  0  0  0  0  0  0  0  0  0  0  0
    2.9195    0.4125    0.0000 O   0  0  0  0  0  0  0  0  0  0  0  0
    2.5070   -0.3020    0.0000 C   0  0  0  0  0  0  0  0  0  0  0  0
    1.6820   -0.3020    0.0000 C   0  0  0  0  0  0  0  0  0  0  0  0
  1  2  1  0  0  0  0
  2  3  1  0  0  0  0
  3  4  1  0  0  0  0
  4  5  1  0  0  0  0
  5  6  1  0  0  0  0
  2  6  1  0  0  0  0
  6  7  1  0  0  0  0
  7  8  1  0  0  0  0
  8  9  1  0  0  0  0
  9 10  1  0  0  0  0
 10 11  1  0  0  0  0
  6 11  1  0  0  0  0
M  END
>  <Catalog ID>
Z1988419288

>  <PlateID>
1198308-R-SPFL-05

>  <Well>
A02

>  <MW (desalted)>
155.237

>  <ClogP>
0.400

>  <HBD>
1

>  <TPSA>
35.250

>  <RotBonds>
0

$$$$

            

 12 13  0  0  0  0            999 V2000
    4.0668    3.1729    0.0000 C   0  0  0  0  0  0  0  0  0  0  0  0
    4.0668    2.3479    0.0000 O   0  0  0  0  0  0  0  0  0  0  0  0
    3.3523    1.9354    0.0000 C   0  0  0  0  0  0  0  0  0  0  0  0
    3.3523    1.1104    0.0000 C   0  0  0  0  0  0  0  0  0  0  0  0
    2.6378    0.6979    0.0000 C   0  0  0  0  0  0  0  0  0  0  0  0
    1.9233    1.1104    0.0000 C   0  0  0  0  0  0  0  0  0  0  0  0
    1.1387    0.8555    0.0000 C   0  0  0  0  0  0  0  0  0  0  0  0
    0.8838    0.0709    0.0000 N   0  0  0  0  0  0  0  0  0  0  0  0
    0.6538    1.5229    0.0000 N   0  0  0  0  0  0  0  0  0  0  0  0
    1.1387    2.1904    0.0000 O   0  0  0  0  0  0  0  0  0  0  0  0
    1.9233    1.9354    0.0000 C   0  0  0  0  0  0  0  0  0  0  0  0
    2.6378    2.3479    0.0000 C   0  0  0  0  0  0  0  0  0  0  0  0
  1  2  1  0  0  0  0
  2  3  1  0  0  0  0
  3  4  2  0  0  0  0
  4  5  1  0  0  0  0
  5  6  2  0  0  0  0
  6  7  1  0  0  0  0
  7  8  1  0  0  0  0
  7  9  2  0  0  0  0
  9 10  1  0  0  0  0
 10 11  1  0  0  0  0
  6 11  1  0  0  0  0
 11 12  2  0  0  0  0
  3 12  1  0  0  0  0
M  END
>  <Catalog ID>
Z1216820032

>  <PlateID>
1198308-R-SPFL-05

>  <Well>
A03

>  <MW (desalted)>
164.161

>  <ClogP>
1.437

>  <HBD>
1

>  <TPSA>
61.280

>  <RotBonds>
1

$$$$

            

 12 12  0  0  0  0            999 V2000
    0.0000    0.0000    0.0000 Cl  0  0  0  0  0  0  0  0  0  0  0  0
    1.9446   -0.6495    0.0000 O   0  0  0  0  0  0  0  0  0  0  0  0
    2.3571    0.0650    0.0000 C   0  0  0  0  0  0  0  0  0  0  0  0
    3.1821    0.0650    0.0000 C   0  0  0  0  0  0  0  0  0  0  0  0
    3.6671    0.7324    0.0000 C   0  0  0  0  0  0  0  0  0  0  0  0
    4.4517    0.4775    0.0000 N   0  0  0  0  0  0  0  0  0  0  0  0
    5.1662    0.8900    0.0000 C   0  0  0  0  0  0  0  0  0  0  0  0
    5.8806    0.4775    0.0000 C   0  0  0  0  0  0  0  0  0  0  0  0
    5.8806   -0.3475    0.0000 C   0  0  0  0  0  0  0  0  0  0  0  0
    5.1662   -0.7600    0.0000 C   0  0  0  0  0  0  0  0  0  0  0  0
    4.4517   -0.3475    0.0000 C   0  0  0  0  0  0  0  0  0  0  0  0
    3.6671   -0.6025    0.0000 N   0  0  0  0  0  0  0  0  0  0  0  0
  2  3  1  0  0  0  0
  3  4  1  0  0  0  0
  4  5  2  0  0  0  0
  5  6  1  0  0  0  0
  6  7  1  0  0  0  0
  7  8  2  0  0  0  0
  8  9  1  0  0  0  0
  9 10  2  0  0  0  0
 10 11  1  0  0  0  0
  6 11  1  0  0  0  0
 11 12  2  0  0  0  0
  4 12  1  0  0  0  0
M  END
>  <Catalog ID>
Z1891776545

>  <PlateID>
1198308-R-SPFL-05

>  <Well>
A04

>  <MW (desalted)>
148.162

>  <ClogP>
0.368

>  <HBD>
1

>  <TPSA>
37.530

>  <RotBonds>
1

$$$$

            

 13 14  0  0  0  0            999 V2000
    0.0000   -2.4750    0.0000 N   0  0  0  0  0  0  0  0  0  0  0  0
    0.0000   -1.6500    0.0000 C   0  0  0  0  0  0  0  0  0  0  0  0
   -0.7145   -1.2375    0.0000 O   0  0  0  0  0  0  0  0  0  0  0  0
    0.7145   -1.2375    0.0000 C   0  0  0  0  0  0  0  0  0  0  0  0
    0.7145   -0.4125    0.0000 C   0  0  0  0  0  0  0  0  0  0  0  0
    1.4289    0.0000    0.0000 C   0  0  0  0  0  0  0  0  0  0  0  0
    2.1434   -0.4125    0.0000 C   0  0  0  0  0  0  0  0  0  0  0  0
    2.8579    0.0000    0.0000 C   0  0  0  0  0  0  0  0  0  0  0  0
    3.5724   -0.4125    0.0000 C   0  0  0  0  0  0  0  0  0  0  0  0
    3.5724   -1.2375    0.0000 C   0  0  0  0  0  0  0  0  0  0  0  0
    2.8579   -1.6500    0.0000 C   0  0  0  0  0  0  0  0  0  0  0  0
    2.1434   -1.2375    0.0000 C   0  0  0  0  0  0  0  0  0  0  0  0
    1.4289   -1.6500    0.0000 N   0  0  0  0  0  0  0  0  0  0  0  0
  1  2  1  0  0  0  0
  2  3  2  0  0  0  0
  2  4  1  0  0  0  0
  4  5  1  0  0  0  0
  5  6  1  0  0  0  0
  6  7  1  0  0  0  0
  7  8  2  0  0  0  0
  8  9  1  0  0  0  0
  9 10  2  0  0  0  0
 10 11  1  0  0  0  0
 11 12  2  0  0  0  0
  7 12  1  0  0  0  0
 12 13  1  0  0  0  0
  4 13  1  0  0  0  0
M  END
>  <Catalog ID>
Z300072128

>  <PlateID>
1198308-R-SPFL-05

>  <Well>
A05

>  <MW (desalted)>
176.215

>  <ClogP>
0.714

>  <HBD>
2

>  <TPSA>
55.120

>  <RotBonds>
1

$$$$

            

 12 13  0  0  0  0            999 V2000
    2.5330    0.1698    0.0000 C   0  0  0  0  0  0  0  0  0  0  0  0
    2.5330   -0.6552    0.0000 N   0  0  0  0  0  0  0  0  0  0  0  0
    3.2004   -1.1401    0.0000 C   0  0  0  0  0  0  0  0  0  0  0  0
    2.9455   -1.9248    0.0000 C   0  0  0  0  0  0  0  0  0  0  0  0
    3.4304   -2.5922    0.0000 C   0  0  0  0  0  0  0  0  0  0  0  0
    3.0948   -3.3459    0.0000 C   0  0  0  0  0  0  0  0  0  0  0  0
    3.5073   -4.0603    0.0000 C   0  0  0  0  0  0  0  0  0  0  0  0
    2.9553   -4.6734    0.0000 C   0  0  0  0  0  0  0  0  0  0  0  0
    2.2016   -4.3379    0.0000 N   0  0  0  0  0  0  0  0  0  0  0  0
    2.2879   -3.5174    0.0000 C   0  0  0  0  0  0  0  0  0  0  0  0
    2.1205   -1.9248    0.0000 C   0  0  0  0  0  0  0  0  0  0  0  0
    1.8655   -1.1401    0.0000 N   0  0  0  0  0  0  0  0  0  0  0  0
  1  2  1  0  0  0  0
  2  3  1  0  0  0  0
  3  4  2  0  0  0  0
  4  5  1  0  0  0  0
  5  6  1  0  0  0  0
  6  7  1  0  0  0  0
  7  8  1  0  0  0  0
  8  9  1  0  0  0  0
  9 10  1  0  0  0  0
  6 10  1  0  0  0  0
  4 11  1  0  0  0  0
 11 12  2  0  0  0  0
  2 12  1  0  0  0  0
M  END
>  <Catalog ID>
Z1227757598

>  <PlateID>
1198308-R-SPFL-05

>  <Well>
A06

>  <MW (desalted)>
165.236

>  <ClogP>
0.198

>  <HBD>
1

>  <TPSA>
29.850

>  <RotBonds>
2

$$$$

            

 12 12  0  0  0  0            999 V2000
    1.4289    3.3000    0.0000 C   0  0  0  0  0  0  0  0  0  0  0  0
    1.4289    2.4750    0.0000 O   0  0  0  0  0  0  0  0  0  0  0  0
    0.7145    2.0625    0.0000 C   0  0  0  0  0  0  0  0  0  0  0  0
    0.7145    1.2375    0.0000 C   0  0  0  0  0  0  0  0  0  0  0  0
    1.4289    0.8250    0.0000 C   0  0  0  0  0  0  0  0  0  0  0  0
    1.4289   -0.0000    0.0000 C   0  0  0  0  0  0  0  0  0  0  0  0
    0.7145   -0.4125    0.0000 C   0  0  0  0  0  0  0  0  0  0  0  0
    0.0000    0.0000    0.0000 C   0  0  0  0  0  0  0  0  0  0  0  0
    0.0000    0.8250    0.0000 C   0  0  0  0  0  0  0  0  0  0  0  0
   -0.7145   -0.4125    0.0000 C   0  0  0  0  0  0  0  0  0  0  0  0
   -0.7145   -1.2375    0.0000 O   0  0  0  0  0  0  0  0  0  0  0  0
   -1.4289    0.0000    0.0000 O   0  0  0  0  0  0  0  0  0  0  0  0
  1  2  1  0  0  0  0
  2  3  1  0  0  0  0
  3  4  1  0  0  0  0
  4  5  2  0  0  0  0
  5  6  1  0  0  0  0
  6  7  2  0  0  0  0
  7  8  1  0  0  0  0
  8  9  2  0  0  0  0
  4  9  1  0  0  0  0
  8 10  1  0  0  0  0
 10 11  2  0  0  0  0
 10 12  1  0  0  0  0
M  END
>  <Catalog ID>
Z90122375

>  <PlateID>
1198308-R-SPFL-05

>  <Well>
A07

>  <MW (desalted)>
166.174

>  <ClogP>
1.683

>  <HBD>
1

>  <TPSA>
46.530

>  <RotBonds>
3

$$$$

            

 13 14  0  0  0  0            999 V2000
    0.6078    1.1759    0.0000 O   0  0  0  0  0  0  0  0  0  0  0  0
    1.3222    0.7634    0.0000 C   0  0  0  0  0  0  0  0  0  0  0  0
    2.0367    1.1759    0.0000 C   0  0  0  0  0  0  0  0  0  0  0  0
    2.0367    2.0009    0.0000 C   0  0  0  0  0  0  0  0  0  0  0  0
    2.7512    2.4134    0.0000 C   0  0  0  0  0  0  0  0  0  0  0  0
    3.4656    2.0009    0.0000 C   0  0  0  0  0  0  0  0  0  0  0  0
    3.4656    1.1759    0.0000 N   0  0  0  0  0  0  0  0  0  0  0  0
    2.7512    0.7634    0.0000 C   0  0  0  0  0  0  0  0  0  0  0  0
    2.7512   -0.0616    0.0000 N   0  0  0  0  0  0  0  0  0  0  0  0
    3.4186   -0.5465    0.0000 C   0  0  0  0  0  0  0  0  0  0  0  0
    3.1637   -1.3312    0.0000 C   0  0  0  0  0  0  0  0  0  0  0  0
    2.3387   -1.3312    0.0000 C   0  0  0  0  0  0  0  0  0  0  0  0
    2.0837   -0.5465    0.0000 C   0  0  0  0  0  0  0  0  0  0  0  0
  1  2  1  0  0  0  0
  2  3  1  0  0  0  0
  3  4  2  0  0  0  0
  4  5  1  0  0  0  0
  5  6  2  0  0  0  0
  6  7  1  0  0  0  0
  7  8  2  0  0  0  0
  3  8  1  0  0  0  0
  8  9  1  0  0  0  0
  9 10  1  0  0  0  0
 10 11  1  0  0  0  0
 11 12  1  0  0  0  0
 12 13  1  0  0  0  0
  9 13  1  0  0  0  0
M  END
>  <Catalog ID>
Z800259170

>  <PlateID>
1198308-R-SPFL-05

>  <Well>
A08

>  <MW (desalted)>
178.231

>  <ClogP>
0.885

>  <HBD>
1

>  <TPSA>
36.360

>  <RotBonds>
2

$$$$

            

 12 12  0  0  0  0            999 V2000
    1.2822    2.3518    0.0000 C   0  0  0  0  0  0  0  0  0  0  0  0
    0.5678    1.9393    0.0000 C   0  0  0  0  0  0  0  0  0  0  0  0
   -0.1467    2.3518    0.0000 C   0  0  0  0  0  0  0  0  0  0  0  0
    0.5678    1.1143    0.0000 C   0  0  0  0  0  0  0  0  0  0  0  0
    1.2352    0.6294    0.0000 N   0  0  0  0  0  0  0  0  0  0  0  0
    0.9803   -0.1553    0.0000 C   0  0  0  0  0  0  0  0  0  0  0  0
    1.4652   -0.8227    0.0000 C   0  0  0  0  0  0  0  0  0  0  0  0
    0.1553   -0.1553    0.0000 C   0  0  0  0  0  0  0  0  0  0  0  0
   -0.0997    0.6294    0.0000 O   0  0  0  0  0  0  0  0  0  0  0  0
   -0.3297   -0.8227    0.0000 C   0  0  0  0  0  0  0  0  0  0  0  0
    0.0059   -1.5764    0.0000 O   0  0  0  0  0  0  0  0  0  0  0  0
   -1.1501   -0.7365    0.0000 O   0  0  0  0  0  0  0  0  0  0  0  0
  1  2  1  0  0  0  0
  2  3  1  0  0  0  0
  2  4  1  0  0  0  0
  4  5  2  0  0  0  0
  5  6  1  0  0  0  0
  6  7  1  0  0  0  0
  6  8  2  0  0  0  0
  8  9  1  0  0  0  0
  4  9  1  0  0  0  0
  8 10  1  0  0  0  0
 10 11  2  0  0  0  0
 10 12  1  0  0  0  0
M  END
>  <Catalog ID>
Z1251360732

>  <PlateID>
1198308-R-SPFL-05

>  <Well>
A09

>  <MW (desalted)>
169.178

>  <ClogP>
1.141

>  <HBD>
1

>  <TPSA>
63.330

>  <RotBonds>
2

$$$$

            

 12 12  0  0  0  0            999 V2000
    0.0000    0.0000    0.0000 Cl  0  0  0  0  0  0  0  0  0  0  0  0
    5.7701    0.6000    0.0000 F   0  0  0  0  0  0  0  0  0  0  0  0
    5.0556    0.1875    0.0000 C   0  0  0  0  0  0  0  0  0  0  0  0
    5.0556   -0.6375    0.0000 C   0  0  0  0  0  0  0  0  0  0  0  0
    4.3412   -1.0500    0.0000 C   0  0  0  0  0  0  0  0  0  0  0  0
    3.6267   -0.6375    0.0000 C   0  0  0  0  0  0  0  0  0  0  0  0
    2.8421   -0.8924    0.0000 C   0  0  0  0  0  0  0  0  0  0  0  0
    2.3571   -0.2250    0.0000 C   0  0  0  0  0  0  0  0  0  0  0  0
    2.8421    0.4424    0.0000 N   0  0  0  0  0  0  0  0  0  0  0  0
    3.6267    0.1875    0.0000 C   0  0  0  0  0  0  0  0  0  0  0  0
    4.3412    0.6000    0.0000 C   0  0  0  0  0  0  0  0  0  0  0  0
    4.3412    1.4250    0.0000 F   0  0  0  0  0  0  0  0  0  0  0  0
  2  3  1  0  0  0  0
  3  4  2  0  0  0  0
  4  5  1  0  0  0  0
  5  6  2  0  0  0  0
  6  7  1  0  0  0  0
  7  8  1  0  0  0  0
  8  9  1  0  0  0  0
  9 10  1  0  0  0  0
  6 10  1  0  0  0  0
 10 11  2  0  0  0  0
  3 11  1  0  0  0  0
 11 12  1  0  0  0  0
M  END
>  <Catalog ID>
Z2235823250

>  <PlateID>
1198308-R-SPFL-05

>  <Well>
A10

>  <MW (desalted)>
155.145

>  <ClogP>
2.400

>  <HBD>
1

>  <TPSA>
12.030

>  <RotBonds>
0

$$$$

            

 11 12  0  0  0  0            999 V2000
    4.0668    3.1729    0.0000 N   0  0  0  0  0  0  0  0  0  0  0  0
    4.0668    2.3479    0.0000 C   0  0  0  0  0  0  0  0  0  0  0  0
    3.3523    1.9354    0.0000 C   0  0  0  0  0  0  0  0  0  0  0  0
    3.3523    1.1104    0.0000 C   0  0  0  0  0  0  0  0  0  0  0  0
    2.6378    0.6979    0.0000 C   0  0  0  0  0  0  0  0  0  0  0  0
    1.9233    1.1104    0.0000 C   0  0  0  0  0  0  0  0  0  0  0  0
    1.1387    0.8555    0.0000 O   0  0  0  0  0  0  0  0  0  0  0  0
    0.6538    1.5229    0.0000 C   0  0  0  0  0  0  0  0  0  0  0  0
    1.1387    2.1904    0.0000 C   0  0  0  0  0  0  0  0  0  0  0  0
    1.9233    1.9354    0.0000 C   0  0  0  0  0  0  0  0  0  0  0  0
    2.6378    2.3479    0.0000 C   0  0  0  0  0  0  0  0  0  0  0  0
  1  2  1  0  0  0  0
  2  3  1  0  0  0  0
  3  4  2  0  0  0  0
  4  5  1  0  0  0  0
  5  6  2  0  0  0  0
  6  7  1  0  0  0  0
  7  8  1  0  0  0  0
  8  9  1  0  0  0  0
  9 10  1  0  0  0  0
  6 10  1  0  0  0  0
 10 11  2  0  0  0  0
  3 11  1  0  0  0  0
M  END
>  <Catalog ID>
Z448237126

>  <PlateID>
1198308-R-SPFL-05

>  <Well>
A11

>  <MW (desalted)>
149.190

>  <ClogP>
1.148

>  <HBD>
1

>  <TPSA>
35.250

>  <RotBonds>
1

$$$$

            

 14 15  0  0  0  0            999 V2000
    2.7512   -0.0616    0.0000 N   0  0  0  0  0  0  0  0  0  0  0  0
    2.0367   -0.4741    0.0000 C   0  0  0  0  0  0  0  0  0  0  0  0
    2.0367   -1.2991    0.0000 C   0  0  0  0  0  0  0  0  0  0  0  0
    2.7041   -1.7840    0.0000 C   0  0  0  0  0  0  0  0  0  0  0  0
    2.4492   -2.5687    0.0000 C   0  0  0  0  0  0  0  0  0  0  0  0
    1.6242   -2.5687    0.0000 N   0  0  0  0  0  0  0  0  0  0  0  0
    1.1393   -3.2361    0.0000 C   0  0  0  0  0  0  0  0  0  0  0  0
    0.3188   -3.1499    0.0000 C   0  0  0  0  0  0  0  0  0  0  0  0
   -0.1661   -3.8173    0.0000 C   0  0  0  0  0  0  0  0  0  0  0  0
   -0.9866   -3.7311    0.0000 C   0  0  0  0  0  0  0  0  0  0  0  0
   -1.3222   -2.9774    0.0000 C   0  0  0  0  0  0  0  0  0  0  0  0
   -0.8372   -2.3099    0.0000 C   0  0  0  0  0  0  0  0  0  0  0  0
   -0.0168   -2.3962    0.0000 C   0  0  0  0  0  0  0  0  0  0  0  0
    1.3693   -1.7840    0.0000 C   0  0  0  0  0  0  0  0  0  0  0  0
  1  2  1  0  0  0  0
  2  3  1  0  0  0  0
  3  4  1  0  0  0  0
  4  5  1  0  0  0  0
  5  6  1  0  0  0  0
  6  7  1  0  0  0  0
  7  8  1  0  0  0  0
  8  9  2  0  0  0  0
  9 10  1  0  0  0  0
 10 11  2  0  0  0  0
 11 12  1  0  0  0  0
 12 13  2  0  0  0  0
  8 13  1  0  0  0  0
  6 14  1  0  0  0  0
  3 14  1  0  0  0  0
M  END
>  <Catalog ID>
Z317027120

>  <PlateID>
1198308-R-SPFL-05

>  <Well>
B02

>  <MW (desalted)>
190.285

>  <ClogP>
1.242

>  <HBD>
1

>  <TPSA>
29.260

>  <RotBonds>
3

$$$$

            

 13 14  0  0  0  0            999 V2000
    0.6078    1.1759    0.0000 C   0  0  0  0  0  0  0  0  0  0  0  0
    1.3222    0.7634    0.0000 O   0  0  0  0  0  0  0  0  0  0  0  0
    2.0367    1.1759    0.0000 C   0  0  0  0  0  0  0  0  0  0  0  0
    2.0367    2.0009    0.0000 C   0  0  0  0  0  0  0  0  0  0  0  0
    2.7512    2.4134    0.0000 C   0  0  0  0  0  0  0  0  0  0  0  0
    3.4656    2.0009    0.0000 C   0  0  0  0  0  0  0  0  0  0  0  0
    3.4656    1.1759    0.0000 C   0  0  0  0  0  0  0  0  0  0  0  0
    2.7512    0.7634    0.0000 C   0  0  0  0  0  0  0  0  0  0  0  0
    2.7512   -0.0616    0.0000 C   0  0  0  0  0  0  0  0  0  0  0  0
    3.4186   -0.5465    0.0000 N   0  0  0  0  0  0  0  0  0  0  0  0
    3.1637   -1.3312    0.0000 N   0  0  0  0  0  0  0  0  0  0  0  0
    2.3387   -1.3312    0.0000 C   0  0  0  0  0  0  0  0  0  0  0  0
    2.0837   -0.5465    0.0000 O   0  0  0  0  0  0  0  0  0  0  0  0
  1  2  1  0  0  0  0
  2  3  1  0  0  0  0
  3  4  2  0  0  0  0
  4  5  1  0  0  0  0
  5  6  2  0  0  0  0
  6  7  1  0  0  0  0
  7  8  2  0  0  0  0
  3  8  1  0  0  0  0
  8  9  1  0  0  0  0
  9 10  2  0  0  0  0
 10 11  1  0  0  0  0
 11 12  2  0  0  0  0
 12 13  1  0  0  0  0
  9 13  1  0  0  0  0
M  END
>  <Catalog ID>
Z1198177230

>  <PlateID>
1198308-R-SPFL-05

>  <Well>
B03

>  <MW (desalted)>
176.172

>  <ClogP>
0.204

>  <HBD>
0

>  <TPSA>
48.150

>  <RotBonds>
2

$$$$

            

 14 15  0  0  0  0            999 V2000
    2.0367   -0.4741    0.0000 N   0  0  0  0  0  0  0  0  0  0  0  0
    2.0367   -1.2991    0.0000 C   0  0  0  0  0  0  0  0  0  0  0  0
    2.7041   -1.7840    0.0000 N   0  0  0  0  0  0  0  0  0  0  0  0
    2.4492   -2.5687    0.0000 O   0  0  0  0  0  0  0  0  0  0  0  0
    1.6242   -2.5687    0.0000 C   0  0  0  0  0  0  0  0  0  0  0  0
    1.1393   -3.2361    0.0000 C   0  0  0  0  0  0  0  0  0  0  0  0
    0.3188   -3.1499    0.0000 C   0  0  0  0  0  0  0  0  0  0  0  0
   -0.1661   -3.8173    0.0000 C   0  0  0  0  0  0  0  0  0  0  0  0
   -0.9866   -3.7311    0.0000 C   0  0  0  0  0  0  0  0  0  0  0  0
   -1.3222   -2.9774    0.0000 C   0  0  0  0  0  0  0  0  0  0  0  0
   -2.1426   -2.8911    0.0000 F   0  0  0  0  0  0  0  0  0  0  0  0
   -0.8372   -2.3099    0.0000 C   0  0  0  0  0  0  0  0  0  0  0  0
   -0.0168   -2.3962    0.0000 C   0  0  0  0  0  0  0  0  0  0  0  0
    1.3693   -1.7840    0.0000 N   0  0  0  0  0  0  0  0  0  0  0  0
  1  2  1  0  0  0  0
  2  3  2  0  0  0  0
  3  4  1  0  0  0  0
  4  5  1  0  0  0  0
  5  6  1  0  0  0  0
  6  7  1  0  0  0  0
  7  8  2  0  0  0  0
  8  9  1  0  0  0  0
  9 10  2  0  0  0  0
 10 11  1  0  0  0  0
 10 12  1  0  0  0  0
 12 13  2  0  0  0  0
  7 13  1  0  0  0  0
  5 14  2  0  0  0  0
  2 14  1  0  0  0  0
M  END
>  <Catalog ID>
Z1147463144

>  <PlateID>
1198308-R-SPFL-05

>  <Well>
B04

>  <MW (desalted)>
193.178

>  <ClogP>
1.453

>  <HBD>
1

>  <TPSA>
64.940

>  <RotBonds>
2

$$$$

            

 14 14  0  0  0  0            999 V2000
    0.7145    2.8875    0.0000 N   0  0  0  0  0  0  0  0  0  0  0  0
    0.7145    2.0625    0.0000 S   0  0  0  0  0  0  0  0  0  0  0  0
   -0.1105    2.0625    0.0000 O   0  0  0  0  0  0  0  0  0  0  0  0
    1.5395    2.0625    0.0000 O   0  0  0  0  0  0  0  0  0  0  0  0
    0.7145    1.2375    0.0000 C   0  0  0  0  0  0  0  0  0  0  0  0
    1.4289    0.8250    0.0000 C   0  0  0  0  0  0  0  0  0  0  0  0
    1.4289   -0.0000    0.0000 C   0  0  0  0  0  0  0  0  0  0  0  0
    0.7145   -0.4125    0.0000 C   0  0  0  0  0  0  0  0  0  0  0  0
    0.0000    0.0000    0.0000 C   0  0  0  0  0  0  0  0  0  0  0  0
    0.0000    0.8250    0.0000 C   0  0  0  0  0  0  0  0  0  0  0  0
    0.7145   -1.2375    0.0000 C   0  0  0  0  0  0  0  0  0  0  0  0
    0.7145   -2.0625    0.0000 F   0  0  0  0  0  0  0  0  0  0  0  0
   -0.1105   -1.2375    0.0000 F   0  0  0  0  0  0  0  0  0  0  0  0
    1.5395   -1.2375    0.0000 F   0  0  0  0  0  0  0  0  0  0  0  0
  1  2  1  0  0  0  0
  2  3  2  0  0  0  0
  2  4  2  0  0  0  0
  2  5  1  0  0  0  0
  5  6  2  0  0  0  0
  6  7  1  0  0  0  0
  7  8  2  0  0  0  0
  8  9  1  0  0  0  0
  9 10  2  0  0  0  0
  5 10  1  0  0  0  0
  8 11  1  0  0  0  0
 11 12  1  0  0  0  0
 11 13  1  0  0  0  0
 11 14  1  0  0  0  0
M  END
>  <Catalog ID>
Z45415655

>  <PlateID>
1198308-R-SPFL-05

>  <Well>
B05

>  <MW (desalted)>
225.188

>  <ClogP>
1.619

>  <HBD>
1

>  <TPSA>
60.160

>  <RotBonds>
2

$$$$

            

 12 13  0  0  0  0            999 V2000
   -0.5837    0.0165    0.0000 C   0  0  0  0  0  0  0  0  0  0  0  0
   -0.1712   -0.6979    0.0000 C   0  0  0  0  0  0  0  0  0  0  0  0
    0.6538   -0.6979    0.0000 C   0  0  0  0  0  0  0  0  0  0  0  0
    1.1387   -0.0305    0.0000 N   0  0  0  0  0  0  0  0  0  0  0  0
    1.9233   -0.2854    0.0000 C   0  0  0  0  0  0  0  0  0  0  0  0
    2.6378    0.1271    0.0000 C   0  0  0  0  0  0  0  0  0  0  0  0
    3.3523   -0.2854    0.0000 C   0  0  0  0  0  0  0  0  0  0  0  0
    3.3523   -1.1104    0.0000 C   0  0  0  0  0  0  0  0  0  0  0  0
    4.0668   -1.5229    0.0000 N   0  0  0  0  0  0  0  0  0  0  0  0
    2.6378   -1.5229    0.0000 C   0  0  0  0  0  0  0  0  0  0  0  0
    1.9233   -1.1104    0.0000 N   0  0  0  0  0  0  0  0  0  0  0  0
    1.1387   -1.3654    0.0000 N   0  0  0  0  0  0  0  0  0  0  0  0
  1  2  1  0  0  0  0
  2  3  1  0  0  0  0
  3  4  1  0  0  0  0
  4  5  2  0  0  0  0
  5  6  1  0  0  0  0
  6  7  1  0  0  0  0
  7  8  1  0  0  0  0
  8  9  1  0  0  0  0
  8 10  1  0  0  0  0
 10 11  1  0  0  0  0
  5 11  1  0  0  0  0
 11 12  1  0  0  0  0
  3 12  2  0  0  0  0
M  END
>  <Catalog ID>
Z1138834267

>  <PlateID>
1198308-R-SPFL-05

>  <Well>
B06

>  <MW (desalted)>
166.224

>  <ClogP>
-0.346

>  <HBD>
1

>  <TPSA>
56.730

>  <RotBonds>
1

$$$$

            

 14 15  0  0  0  0            999 V2000
    2.7512   -0.0616    0.0000 C   0  0  0  0  0  0  0  0  0  0  0  0
    2.0367   -0.4741    0.0000 C   0  0  0  0  0  0  0  0  0  0  0  0
    2.0367   -1.2991    0.0000 C   0  0  0  0  0  0  0  0  0  0  0  0
    2.7041   -1.7840    0.0000 C   0  0  0  0  0  0  0  0  0  0  0  0
    2.4492   -2.5687    0.0000 S   0  0  0  0  0  0  0  0  0  0  0  0
    1.6242   -2.5687    0.0000 C   0  0  0  0  0  0  0  0  0  0  0  0
    1.1393   -3.2361    0.0000 C   0  0  0  0  0  0  0  0  0  0  0  0
    0.3188   -3.1499    0.0000 C   0  0  0  0  0  0  0  0  0  0  0  0
   -0.1661   -3.8173    0.0000 C   0  0  0  0  0  0  0  0  0  0  0  0
   -0.9866   -3.7311    0.0000 C   0  0  0  0  0  0  0  0  0  0  0  0
   -1.3222   -2.9774    0.0000 N   0  0  0  0  0  0  0  0  0  0  0  0
   -0.8372   -2.3099    0.0000 C   0  0  0  0  0  0  0  0  0  0  0  0
   -0.0168   -2.3962    0.0000 C   0  0  0  0  0  0  0  0  0  0  0  0
    1.3693   -1.7840    0.0000 N   0  0  0  0  0  0  0  0  0  0  0  0
  1  2  1  0  0  0  0
  2  3  1  0  0  0  0
  3  4  2  0  0  0  0
  4  5  1  0  0  0  0
  5  6  1  0  0  0  0
  6  7  1  0  0  0  0
  7  8  1  0  0  0  0
  8  9  1  0  0  0  0
  9 10  1  0  0  0  0
 10 11  1  0  0  0  0
 11 12  1  0  0  0  0
 12 13  1  0  0  0  0
  8 13  1  0  0  0  0
  6 14  2  0  0  0  0
  3 14  1  0  0  0  0
M  END
>  <Catalog ID>
Z1269158409

>  <PlateID>
1198308-R-SPFL-05

>  <Well>
B07

>  <MW (desalted)>
210.339

>  <ClogP>
2.244

>  <HBD>
1

>  <TPSA>
24.920

>  <RotBonds>
3

$$$$

            

 15 16  0  0  0  0            999 V2000
    0.7145    0.4125    0.0000 N   0  0  0  0  0  0  0  0  0  0  0  0
    0.7145   -0.4125    0.0000 S   0  0  0  0  0  0  0  0  0  0  0  0
   -0.1105   -0.4125    0.0000 O   0  0  0  0  0  0  0  0  0  0  0  0
    1.5395   -0.4125    0.0000 O   0  0  0  0  0  0  0  0  0  0  0  0
    0.7145   -1.2375    0.0000 C   0  0  0  0  0  0  0  0  0  0  0  0
    1.3819   -1.7224    0.0000 C   0  0  0  0  0  0  0  0  0  0  0  0
    1.1270   -2.5070    0.0000 N   0  0  0  0  0  0  0  0  0  0  0  0
    0.3020   -2.5070    0.0000 N   0  0  0  0  0  0  0  0  0  0  0  0
    0.0470   -1.7224    0.0000 C   0  0  0  0  0  0  0  0  0  0  0  0
   -0.1830   -3.1745    0.0000 C   0  0  0  0  0  0  0  0  0  0  0  0
    0.1526   -3.9282    0.0000 C   0  0  0  0  0  0  0  0  0  0  0  0
   -0.3323   -4.5956    0.0000 C   0  0  0  0  0  0  0  0  0  0  0  0
   -1.1528   -4.5094    0.0000 C   0  0  0  0  0  0  0  0  0  0  0  0
   -1.4884   -3.7557    0.0000 C   0  0  0  0  0  0  0  0  0  0  0  0
   -1.0034   -3.0882    0.0000 C   0  0  0  0  0  0  0  0  0  0  0  0
  1  2  1  0  0  0  0
  2  3  2  0  0  0  0
  2  4  2  0  0  0  0
  2  5  1  0  0  0  0
  5  6  1  0  0  0  0
  6  7  2  0  0  0  0
  7  8  1  0  0  0  0
  8  9  1  0  0  0  0
  5  9  2  0  0  0  0
  8 10  1  0  0  0  0
 10 11  2  0  0  0  0
 11 12  1  0  0  0  0
 12 13  2  0  0  0  0
 13 14  1  0  0  0  0
 14 15  2  0  0  0  0
 10 15  1  0  0  0  0
M  END
>  <Catalog ID>
Z815438678

>  <PlateID>
1198308-R-SPFL-05

>  <Well>
B08

>  <MW (desalted)>
223.252

>  <ClogP>
0.865

>  <HBD>
1

>  <TPSA>
77.980

>  <RotBonds>
2

$$$$

            

 10 11  0  0  0  0            999 V2000
   -1.2375   -0.7145    0.0000 O   0  0  0  0  0  0  0  0  0  0  0  0
   -0.4125   -0.7145    0.0000 C   0  0  0  0  0  0  0  0  0  0  0  0
   -0.0000    0.0000    0.0000 C   0  0  0  0  0  0  0  0  0  0  0  0
    0.0000    0.8250    0.0000 C   0  0  0  0  0  0  0  0  0  0  0  0
    0.7145    0.4125    0.0000 C   0  0  0  0  0  0  0  0  0  0  0  0
    1.1270    1.1270    0.0000 C   0  0  0  0  0  0  0  0  0  0  0  0
    1.9520    1.1270    0.0000 C   0  0  0  0  0  0  0  0  0  0  0  0
    2.3645    0.4125    0.0000 O   0  0  0  0  0  0  0  0  0  0  0  0
    1.9520   -0.3020    0.0000 C   0  0  0  0  0  0  0  0  0  0  0  0
    1.1270   -0.3020    0.0000 C   0  0  0  0  0  0  0  0  0  0  0  0
  1  2  1  0  0  0  0
  2  3  1  0  0  0  0
  3  4  1  0  0  0  0
  4  5  1  0  0  0  0
  3  5  1  0  0  0  0
  5  6  1  0  0  0  0
  6  7  1  0  0  0  0
  7  8  1  0  0  0  0
  8  9  1  0  0  0  0
  9 10  1  0  0  0  0
  5 10  1  0  0  0  0
M  END
>  <Catalog ID>
Z1395679784

>  <PlateID>
1198308-R-SPFL-05

>  <Well>
B09

>  <MW (desalted)>
142.196

>  <ClogP>
-0.199

>  <HBD>
1

>  <TPSA>
29.460

>  <RotBonds>
1

$$$$

            

 13 13  0  0  0  0            999 V2000
    0.0000    2.4750    0.0000 C   0  0  0  0  0  0  0  0  0  0  0  0
    0.7145    2.0625    0.0000 O   0  0  0  0  0  0  0  0  0  0  0  0
    0.7145    1.2375    0.0000 C   0  0  0  0  0  0  0  0  0  0  0  0
    1.4289    0.8250    0.0000 C   0  0  0  0  0  0  0  0  0  0  0  0
    1.4289   -0.0000    0.0000 C   0  0  0  0  0  0  0  0  0  0  0  0
    0.7145   -0.4125    0.0000 C   0  0  0  0  0  0  0  0  0  0  0  0
    0.7145   -1.2375    0.0000 C   0  0  0  0  0  0  0  0  0  0  0  0
    0.0000    0.0000    0.0000 C   0  0  0  0  0  0  0  0  0  0  0  0
    0.0000    0.8250    0.0000 C   0  0  0  0  0  0  0  0  0  0  0  0
   -0.7145    1.2375    0.0000 C   0  0  0  0  0  0  0  0  0  0  0  0
   -1.4289    0.8250    0.0000 C   0  0  0  0  0  0  0  0  0  0  0  0
   -1.4289    0.0000    0.0000 O   0  0  0  0  0  0  0  0  0  0  0  0
   -2.1434    1.2375    0.0000 O   0  0  0  0  0  0  0  0  0  0  0  0
  1  2  1  0  0  0  0
  2  3  1  0  0  0  0
  3  4  2  0  0  0  0
  4  5  1  0  0  0  0
  5  6  2  0  0  0  0
  6  7  1  0  0  0  0
  6  8  1  0  0  0  0
  8  9  2  0  0  0  0
  3  9  1  0  0  0  0
  9 10  1  0  0  0  0
 10 11  1  0  0  0  0
 11 12  2  0  0  0  0
 11 13  1  0  0  0  0
M  END
>  <Catalog ID>
Z94601335

>  <PlateID>
1198308-R-SPFL-05

>  <Well>
B10

>  <MW (desalted)>
180.200

>  <ClogP>
1.832

>  <HBD>
1

>  <TPSA>
46.530

>  <RotBonds>
3

$$$$

            

 13 14  0  0  0  0            999 V2000
    1.3222    5.5902    0.0000 N   0  0  0  0  0  0  0  0  0  0  0  0
    1.3222    4.7652    0.0000 C   0  0  0  0  0  0  0  0  0  0  0  0
    2.0367    4.3527    0.0000 C   0  0  0  0  0  0  0  0  0  0  0  0
    2.7512    4.7652    0.0000 C   0  0  0  0  0  0  0  0  0  0  0  0
    3.4656    4.3527    0.0000 C   0  0  0  0  0  0  0  0  0  0  0  0
    3.4656    3.5277    0.0000 C   0  0  0  0  0  0  0  0  0  0  0  0
    2.7512    3.1152    0.0000 C   0  0  0  0  0  0  0  0  0  0  0  0
    2.0367    3.5277    0.0000 C   0  0  0  0  0  0  0  0  0  0  0  0
    2.7512    2.2902    0.0000 N   0  0  0  0  0  0  0  0  0  0  0  0
    3.4186    1.8053    0.0000 C   0  0  0  0  0  0  0  0  0  0  0  0
    3.1637    1.0206    0.0000 N   0  0  0  0  0  0  0  0  0  0  0  0
    2.3387    1.0206    0.0000 C   0  0  0  0  0  0  0  0  0  0  0  0
    2.0837    1.8053    0.0000 N   0  0  0  0  0  0  0  0  0  0  0  0
  1  2  1  0  0  0  0
  2  3  1  0  0  0  0
  3  4  2  0  0  0  0
  4  5  1  0  0  0  0
  5  6  2  0  0  0  0
  6  7  1  0  0  0  0
  7  8  2  0  0  0  0
  3  8  1  0  0  0  0
  7  9  1  0  0  0  0
  9 10  1  0  0  0  0
 10 11  2  0  0  0  0
 11 12  1  0  0  0  0
 12 13  2  0  0  0  0
  9 13  1  0  0  0  0
M  END
>  <Catalog ID>
Z1180124008

>  <PlateID>
1198308-R-SPFL-05

>  <Well>
B11

>  <MW (desalted)>
174.203

>  <ClogP>
0.155

>  <HBD>
1

>  <TPSA>
56.730

>  <RotBonds>
2

$$$$

            

 11 12  0  0  0  0            999 V2000
    0.0000   -0.0000    0.0000 N   0  0  0  0  0  0  0  0  0  0  0  0
    0.7145   -0.4125    0.0000 C   0  0  0  0  0  0  0  0  0  0  0  0
    1.4289    0.0000    0.0000 C   0  0  0  0  0  0  0  0  0  0  0  0
    2.1434   -0.4125    0.0000 C   0  0  0  0  0  0  0  0  0  0  0  0
    2.8579    0.0000    0.0000 C   0  0  0  0  0  0  0  0  0  0  0  0
    3.5724   -0.4125    0.0000 C   0  0  0  0  0  0  0  0  0  0  0  0
    3.5724   -1.2375    0.0000 C   0  0  0  0  0  0  0  0  0  0  0  0
    2.8579   -1.6500    0.0000 C   0  0  0  0  0  0  0  0  0  0  0  0
    2.1434   -1.2375    0.0000 C   0  0  0  0  0  0  0  0  0  0  0  0
    1.4289   -1.6500    0.0000 N   0  0  0  0  0  0  0  0  0  0  0  0
    0.7145   -1.2375    0.0000 N   0  0  0  0  0  0  0  0  0  0  0  0
  1  2  1  0  0  0  0
  2  3  2  0  0  0  0
  3  4  1  0  0  0  0
  4  5  2  0  0  0  0
  5  6  1  0  0  0  0
  6  7  2  0  0  0  0
  7  8  1  0  0  0  0
  8  9  2  0  0  0  0
  4  9  1  0  0  0  0
  9 10  1  0  0  0  0
 10 11  2  0  0  0  0
  2 11  1  0  0  0  0
M  END
>  <Catalog ID>
Z1198155761

>  <PlateID>
1198308-R-SPFL-05

>  <Well>
C02

>  <MW (desalted)>
145.161

>  <ClogP>
0.925

>  <HBD>
1

>  <TPSA>
51.800

>  <RotBonds>
0

$$$$

            

 12 13  0  0  0  0            999 V2000
    1.3222    4.7652    0.0000 N   0  0  0  0  0  0  0  0  0  0  0  0
    2.0367    4.3527    0.0000 C   0  0  0  0  0  0  0  0  0  0  0  0
    2.7512    4.7652    0.0000 N   0  0  0  0  0  0  0  0  0  0  0  0
    3.4656    4.3527    0.0000 C   0  0  0  0  0  0  0  0  0  0  0  0
    3.4656    3.5277    0.0000 C   0  0  0  0  0  0  0  0  0  0  0  0
    2.7512    3.1152    0.0000 C   0  0  0  0  0  0  0  0  0  0  0  0
    2.0367    3.5277    0.0000 N   0  0  0  0  0  0  0  0  0  0  0  0
    2.7512    2.2902    0.0000 C   0  0  0  0  0  0  0  0  0  0  0  0
    3.4186    1.8053    0.0000 C   0  0  0  0  0  0  0  0  0  0  0  0
    3.1637    1.0206    0.0000 C   0  0  0  0  0  0  0  0  0  0  0  0
    2.3387    1.0206    0.0000 C   0  0  0  0  0  0  0  0  0  0  0  0
    2.0837    1.8053    0.0000 S   0  0  0  0  0  0  0  0  0  0  0  0
  1  2  1  0  0  0  0
  2  3  2  0  0  0  0
  3  4  1  0  0  0  0
  4  5  2  0  0  0  0
  5  6  1  0  0  0  0
  6  7  2  0  0  0  0
  2  7  1  0  0  0  0
  6  8  1  0  0  0  0
  8  9  2  0  0  0  0
  9 10  1  0  0  0  0
 10 11  2  0  0  0  0
 11 12  1  0  0  0  0
  8 12  1  0  0  0  0
M  END
>  <Catalog ID>
Z991536758

>  <PlateID>
1198308-R-SPFL-05

>  <Well>
C03

>  <MW (desalted)>
177.226

>  <ClogP>
1.680

>  <HBD>
1

>  <TPSA>
51.800

>  <RotBonds>
1

$$$$

            

 13 14  0  0  0  0            999 V2000
    2.0367   -0.4741    0.0000 C   0  0  0  0  0  0  0  0  0  0  0  0
    2.0367   -1.2991    0.0000 N   0  0  0  0  0  0  0  0  0  0  0  0
    2.7041   -1.7840    0.0000 C   0  0  0  0  0  0  0  0  0  0  0  0
    2.4492   -2.5687    0.0000 C   0  0  0  0  0  0  0  0  0  0  0  0
    1.6242   -2.5687    0.0000 N   0  0  0  0  0  0  0  0  0  0  0  0
    1.3693   -1.7840    0.0000 C   0  0  0  0  0  0  0  0  0  0  0  0
    0.5846   -1.5291    0.0000 C   0  0  0  0  0  0  0  0  0  0  0  0
    0.4131   -0.7221    0.0000 C   0  0  0  0  0  0  0  0  0  0  0  0
   -0.3715   -0.4672    0.0000 C   0  0  0  0  0  0  0  0  0  0  0  0
   -0.5430    0.3398    0.0000 C   0  0  0  0  0  0  0  0  0  0  0  0
    0.0701    0.8918    0.0000 C   0  0  0  0  0  0  0  0  0  0  0  0
    0.8547    0.6369    0.0000 N   0  0  0  0  0  0  0  0  0  0  0  0
    1.0262   -0.1701    0.0000 C   0  0  0  0  0  0  0  0  0  0  0  0
  1  2  1  0  0  0  0
  2  3  1  0  0  0  0
  3  4  2  0  0  0  0
  4  5  1  0  0  0  0
  5  6  2  0  0  0  0
  2  6  1  0  0  0  0
  6  7  1  0  0  0  0
  7  8  1  0  0  0  0
  8  9  1  0  0  0  0
  9 10  1  0  0  0  0
 10 11  1  0  0  0  0
 11 12  1  0  0  0  0
 12 13  1  0  0  0  0
  8 13  1  0  0  0  0
M  END
>  <Catalog ID>
Z1183455325

>  <PlateID>
1198308-R-SPFL-05

>  <Well>
C04

>  <MW (desalted)>
179.262

>  <ClogP>
0.487

>  <HBD>
1

>  <TPSA>
29.850

>  <RotBonds>
2

$$$$

            

 15 16  0  0  0  0            999 V2000
   -0.5837    0.0165    0.0000 C   0  0  0  0  0  0  0  0  0  0  0  0
   -0.1712   -0.6979    0.0000 C   0  0  0  0  0  0  0  0  0  0  0  0
    0.6538   -0.6979    0.0000 C   0  0  0  0  0  0  0  0  0  0  0  0
    1.1387   -0.0305    0.0000 N   0  0  0  0  0  0  0  0  0  0  0  0
    1.9233   -0.2854    0.0000 C   0  0  0  0  0  0  0  0  0  0  0  0
    2.6378    0.1271    0.0000 C   0  0  0  0  0  0  0  0  0  0  0  0
    3.3523   -0.2854    0.0000 C   0  0  0  0  0  0  0  0  0  0  0  0
    3.3523   -1.1104    0.0000 C   0  0  0  0  0  0  0  0  0  0  0  0
    4.0668   -1.5229    0.0000 Cl  0  0  0  0  0  0  0  0  0  0  0  0
    2.6378   -1.5229    0.0000 C   0  0  0  0  0  0  0  0  0  0  0  0
    1.9233   -1.1104    0.0000 N   0  0  0  0  0  0  0  0  0  0  0  0
    1.1387   -1.3654    0.0000 C   0  0  0  0  0  0  0  0  0  0  0  0
    0.8838   -2.1500    0.0000 C   0  0  0  0  0  0  0  0  0  0  0  0
    0.0768   -2.3215    0.0000 O   0  0  0  0  0  0  0  0  0  0  0  0
    1.4358   -2.7631    0.0000 O   0  0  0  0  0  0  0  0  0  0  0  0
  1  2  1  0  0  0  0
  2  3  1  0  0  0  0
  3  4  1  0  0  0  0
  4  5  2  0  0  0  0
  5  6  1  0  0  0  0
  6  7  2  0  0  0  0
  7  8  1  0  0  0  0
  8  9  1  0  0  0  0
  8 10  2  0  0  0  0
 10 11  1  0  0  0  0
  5 11  1  0  0  0  0
 11 12  1  0  0  0  0
  3 12  2  0  0  0  0
 12 13  1  0  0  0  0
 13 14  2  0  0  0  0
 13 15  1  0  0  0  0
M  END
>  <Catalog ID>
Z1493055871

>  <PlateID>
1198308-R-SPFL-05

>  <Well>
C05

>  <MW (desalted)>
224.644

>  <ClogP>
2.128

>  <HBD>
1

>  <TPSA>
54.600

>  <RotBonds>
2

$$$$

            

 15 16  0  0  0  0            999 V2000
    0.1067    4.7652    0.0000 C   0  0  0  0  0  0  0  0  0  0  0  0
   -0.6078    4.3527    0.0000 C   0  0  0  0  0  0  0  0  0  0  0  0
   -0.6078    3.5277    0.0000 N   0  0  0  0  0  0  0  0  0  0  0  0
   -1.3222    3.1152    0.0000 C   0  0  0  0  0  0  0  0  0  0  0  0
   -2.0367    3.5277    0.0000 C   0  0  0  0  0  0  0  0  0  0  0  0
   -2.0367    4.3527    0.0000 C   0  0  0  0  0  0  0  0  0  0  0  0
   -1.3222    4.7652    0.0000 C   0  0  0  0  0  0  0  0  0  0  0  0
   -1.3222    5.5902    0.0000 C   0  0  0  0  0  0  0  0  0  0  0  0
   -0.6078    6.0027    0.0000 O   0  0  0  0  0  0  0  0  0  0  0  0
   -2.0367    6.0027    0.0000 O   0  0  0  0  0  0  0  0  0  0  0  0
   -1.3222    2.2902    0.0000 C   0  0  0  0  0  0  0  0  0  0  0  0
   -0.6548    1.8053    0.0000 C   0  0  0  0  0  0  0  0  0  0  0  0
   -0.9097    1.0206    0.0000 C   0  0  0  0  0  0  0  0  0  0  0  0
   -1.7347    1.0206    0.0000 C   0  0  0  0  0  0  0  0  0  0  0  0
   -1.9897    1.8053    0.0000 S   0  0  0  0  0  0  0  0  0  0  0  0
  1  2  1  0  0  0  0
  2  3  2  0  0  0  0
  3  4  1  0  0  0  0
  4  5  2  0  0  0  0
  5  6  1  0  0  0  0
  6  7  2  0  0  0  0
  2  7  1  0  0  0  0
  7  8  1  0  0  0  0
  8  9  2  0  0  0  0
  8 10  1  0  0  0  0
  4 11  1  0  0  0  0
 11 12  2  0  0  0  0
 12 13  1  0  0  0  0
 13 14  2  0  0  0  0
 14 15  1  0  0  0  0
 11 15  1  0  0  0  0
M  END
>  <Catalog ID>
Z164677910

>  <PlateID>
1198308-R-SPFL-05

>  <Well>
C06

>  <MW (desalted)>
219.260

>  <ClogP>
2.989

>  <HBD>
1

>  <TPSA>
50.190

>  <RotBonds>
2

$$$$

            

 13 14  0  0  0  0            999 V2000
    2.5304    3.2248    0.0000 C   0  0  0  0  0  0  0  0  0  0  0  0
    3.0448    3.8698    0.0000 C   0  0  0  0  0  0  0  0  0  0  0  0
    3.8698    3.8698    0.0000 N   0  0  0  0  0  0  0  0  0  0  0  0
    4.3842    3.2248    0.0000 C   0  0  0  0  0  0  0  0  0  0  0  0
    4.2006    2.4205    0.0000 C   0  0  0  0  0  0  0  0  0  0  0  0
    3.4573    2.0625    0.0000 N   0  0  0  0  0  0  0  0  0  0  0  0
    2.7140    2.4205    0.0000 C   0  0  0  0  0  0  0  0  0  0  0  0
    3.4573    1.2375    0.0000 C   0  0  0  0  0  0  0  0  0  0  0  0
    4.1718    0.8250    0.0000 C   0  0  0  0  0  0  0  0  0  0  0  0
    4.1718   -0.0000    0.0000 C   0  0  0  0  0  0  0  0  0  0  0  0
    3.4573   -0.4125    0.0000 C   0  0  0  0  0  0  0  0  0  0  0  0
    2.7428    0.0000    0.0000 C   0  0  0  0  0  0  0  0  0  0  0  0
    2.7428    0.8250    0.0000 C   0  0  0  0  0  0  0  0  0  0  0  0
  1  2  1  0  0  0  0
  2  3  1  0  0  0  0
  3  4  1  0  0  0  0
  4  5  1  0  0  0  0
  5  6  1  0  0  0  0
  6  7  1  0  0  0  0
  1  7  1  0  0  0  0
  6  8  1  0  0  0  0
  8  9  2  0  0  0  0
  9 10  1  0  0  0  0
 10 11  2  0  0  0  0
 11 12  1  0  0  0  0
 12 13  2  0  0  0  0
  8 13  1  0  0  0  0
M  END
>  <Catalog ID>
Z276113542

>  <PlateID>
1198308-R-SPFL-05

>  <Well>
C07

>  <MW (desalted)>
176.258

>  <ClogP>
1.632

>  <HBD>
1

>  <TPSA>
15.270

>  <RotBonds>
1

$$$$

            

 15 17  0  0  0  0            999 V2000
    5.0807    0.3730    0.0000 O   0  0  0  0  0  0  0  0  0  0  0  0
    4.4568    0.9128    0.0000 C   0  0  0  0  0  0  0  0  0  0  0  0
    4.6124    1.7230    0.0000 O   0  0  0  0  0  0  0  0  0  0  0  0
    3.6774    0.6425    0.0000 C   0  0  0  0  0  0  0  0  0  0  0  0
    3.0005    1.1142    0.0000 C   0  0  0  0  0  0  0  0  0  0  0  0
    2.3427    0.6162    0.0000 C   0  0  0  0  0  0  0  0  0  0  0  0
    2.6131   -0.1633    0.0000 C   0  0  0  0  0  0  0  0  0  0  0  0
    1.9554   -0.6613    0.0000 N   0  0  0  0  0  0  0  0  0  0  0  0
    1.2785   -0.1896    0.0000 C   0  0  0  0  0  0  0  0  0  0  0  0
    0.4750   -0.3770    0.0000 C   0  0  0  0  0  0  0  0  0  0  0  0
   -0.0890    0.2251    0.0000 C   0  0  0  0  0  0  0  0  0  0  0  0
    0.1505    1.0146    0.0000 C   0  0  0  0  0  0  0  0  0  0  0  0
    0.9539    1.2020    0.0000 C   0  0  0  0  0  0  0  0  0  0  0  0
    1.5179    0.5999    0.0000 N   0  0  0  0  0  0  0  0  0  0  0  0
    3.4379   -0.1470    0.0000 S   0  0  0  0  0  0  0  0  0  0  0  0
  1  2  1  0  0  0  0
  2  3  2  0  0  0  0
  2  4  1  0  0  0  0
  4  5  2  0  0  0  0
  5  6  1  0  0  0  0
  6  7  2  0  0  0  0
  7  8  1  0  0  0  0
  8  9  2  0  0  0  0
  9 10  1  0  0  0  0
 10 11  2  0  0  0  0
 11 12  1  0  0  0  0
 12 13  2  0  0  0  0
 13 14  1  0  0  0  0
  6 14  1  0  0  0  0
  9 14  1  0  0  0  0
  7 15  1  0  0  0  0
  4 15  1  0  0  0  0
M  END
>  <Catalog ID>
Z56347514

>  <PlateID>
1198308-R-SPFL-05

>  <Well>
C08

>  <MW (desalted)>
218.232

>  <ClogP>
2.772

>  <HBD>
1

>  <TPSA>
54.600

>  <RotBonds>
1

$$$$

            

 11 11  0  0  0  0            999 V2000
   -0.1467    3.1768    0.0000 C   0  0  0  0  0  0  0  0  0  0  0  0
   -0.1467    2.3518    0.0000 C   0  0  0  0  0  0  0  0  0  0  0  0
    0.5678    1.9393    0.0000 C   0  0  0  0  0  0  0  0  0  0  0  0
    0.5678    1.1143    0.0000 N   0  0  0  0  0  0  0  0  0  0  0  0
    1.2352    0.6294    0.0000 C   0  0  0  0  0  0  0  0  0  0  0  0
    0.9803   -0.1553    0.0000 C   0  0  0  0  0  0  0  0  0  0  0  0
    0.1553   -0.1553    0.0000 C   0  0  0  0  0  0  0  0  0  0  0  0
   -0.0997    0.6294    0.0000 N   0  0  0  0  0  0  0  0  0  0  0  0
    1.4652   -0.8227    0.0000 C   0  0  0  0  0  0  0  0  0  0  0  0
    2.2857   -0.7365    0.0000 O   0  0  0  0  0  0  0  0  0  0  0  0
    1.1296   -1.5764    0.0000 O   0  0  0  0  0  0  0  0  0  0  0  0
  1  2  1  0  0  0  0
  2  3  1  0  0  0  0
  3  4  1  0  0  0  0
  4  5  1  0  0  0  0
  5  6  2  0  0  0  0
  6  7  1  0  0  0  0
  7  8  2  0  0  0  0
  4  8  1  0  0  0  0
  6  9  1  0  0  0  0
  9 10  2  0  0  0  0
  9 11  1  0  0  0  0
M  END
>  <Catalog ID>
Z431977880

>  <PlateID>
1198308-R-SPFL-05

>  <Well>
C09

>  <MW (desalted)>
154.167

>  <ClogP>
1.319

>  <HBD>
1

>  <TPSA>
55.120

>  <RotBonds>
3

$$$$

            

 11 12  0  0  0  0            999 V2000
    1.4289   -2.4750    0.0000 O   0  0  0  0  0  0  0  0  0  0  0  0
    1.4289   -1.6500    0.0000 C   0  0  0  0  0  0  0  0  0  0  0  0
    0.7145   -1.2375    0.0000 C   0  0  0  0  0  0  0  0  0  0  0  0
    0.7145   -0.4125    0.0000 C   0  0  0  0  0  0  0  0  0  0  0  0
    1.4289    0.0000    0.0000 N   0  0  0  0  0  0  0  0  0  0  0  0
    2.1434   -0.4125    0.0000 C   0  0  0  0  0  0  0  0  0  0  0  0
    2.8579    0.0000    0.0000 C   0  0  0  0  0  0  0  0  0  0  0  0
    3.5724   -0.4125    0.0000 C   0  0  0  0  0  0  0  0  0  0  0  0
    3.5724   -1.2375    0.0000 C   0  0  0  0  0  0  0  0  0  0  0  0
    2.8579   -1.6500    0.0000 N   0  0  0  0  0  0  0  0  0  0  0  0
    2.1434   -1.2375    0.0000 C   0  0  0  0  0  0  0  0  0  0  0  0
  1  2  1  0  0  0  0
  2  3  2  0  0  0  0
  3  4  1  0  0  0  0
  4  5  2  0  0  0  0
  5  6  1  0  0  0  0
  6  7  2  0  0  0  0
  7  8  1  0  0  0  0
  8  9  2  0  0  0  0
  9 10  1  0  0  0  0
 10 11  2  0  0  0  0
  2 11  1  0  0  0  0
  6 11  1  0  0  0  0
M  END
>  <Catalog ID>
Z1198152632

>  <PlateID>
1198308-R-SPFL-05

>  <Well>
C10

>  <MW (desalted)>
146.146

>  <ClogP>
1.684

>  <HBD>
1

>  <TPSA>
46.010

>  <RotBonds>
0

$$$$

            

 13 13  0  0  0  0            999 V2000
    2.0572    1.7262    0.0000 C   0  0  0  0  0  0  0  0  0  0  0  0
    1.2448    1.8695    0.0000 O   0  0  0  0  0  0  0  0  0  0  0  0
    0.7145    1.2375    0.0000 C   0  0  0  0  0  0  0  0  0  0  0  0
    0.1842    1.8695    0.0000 C   0  0  0  0  0  0  0  0  0  0  0  0
   -0.6283    1.7262    0.0000 N   0  0  0  0  0  0  0  0  0  0  0  0
    1.4289    0.8250    0.0000 C   0  0  0  0  0  0  0  0  0  0  0  0
    1.4289   -0.0000    0.0000 C   0  0  0  0  0  0  0  0  0  0  0  0
    0.7145   -0.4125    0.0000 C   0  0  0  0  0  0  0  0  0  0  0  0
    0.0000    0.0000    0.0000 C   0  0  0  0  0  0  0  0  0  0  0  0
    0.0000    0.8250    0.0000 C   0  0  0  0  0  0  0  0  0  0  0  0
    0.7145   -1.2375    0.0000 C   0  0  0  0  0  0  0  0  0  0  0  0
    1.4289   -1.6500    0.0000 F   0  0  0  0  0  0  0  0  0  0  0  0
   -0.0000   -1.6500    0.0000 F   0  0  0  0  0  0  0  0  0  0  0  0
  1  2  1  0  0  0  0
  2  3  1  0  0  0  0
  3  4  1  0  0  0  0
  4  5  1  0  0  0  0
  3  6  1  0  0  0  0
  6  7  1  0  0  0  0
  7  8  1  0  0  0  0
  8  9  1  0  0  0  0
  9 10  1  0  0  0  0
  3 10  1  0  0  0  0
  8 11  1  0  0  0  0
 11 12  1  0  0  0  0
 11 13  1  0  0  0  0
M  END
>  <Catalog ID>
Z2510944888

>  <PlateID>
1198308-R-SPFL-05

>  <Well>
C11

>  <MW (desalted)>
193.234

>  <ClogP>
1.154

>  <HBD>
1

>  <TPSA>
35.250

>  <RotBonds>
3

$$$$

            

 12 11  0  0  0  0            999 V2000
    0.0000    0.0000    0.0000 Cl  0  0  0  0  0  0  0  0  0  0  0  0
    3.0716    2.2875    0.0000 C   0  0  0  0  0  0  0  0  0  0  0  0
    3.0716    1.4625    0.0000 C   0  0  0  0  0  0  0  0  0  0  0  0
    3.7861    1.0500    0.0000 C   0  0  0  0  0  0  0  0  0  0  0  0
    3.7861    0.2250    0.0000 C   0  0  0  0  0  0  0  0  0  0  0  0
    3.0716   -0.1875    0.0000 C   0  0  0  0  0  0  0  0  0  0  0  0
    2.3571    0.2250    0.0000 C   0  0  0  0  0  0  0  0  0  0  0  0
    2.3571    1.0500    0.0000 C   0  0  0  0  0  0  0  0  0  0  0  0
    3.0716   -1.0125    0.0000 C   0  0  0  0  0  0  0  0  0  0  0  0
    3.7861   -1.4250    0.0000 N   0  0  0  0  0  0  0  0  0  0  0  0
    2.3571   -1.4250    0.0000 C   0  0  0  0  0  0  0  0  0  0  0  0
    2.3571   -2.2500    0.0000 F   0  0  0  0  0  0  0  0  0  0  0  0
  2  3  1  0  0  0  0
  3  4  2  0  0  0  0
  4  5  1  0  0  0  0
  5  6  2  0  0  0  0
  6  7  1  0  0  0  0
  7  8  2  0  0  0  0
  3  8  1  0  0  0  0
  6  9  1  0  0  0  0
  9 10  1  0  0  0  0
  9 11  1  0  0  0  0
 11 12  1  0  0  0  0
M  END
>  <Catalog ID>
Z2474474695

>  <PlateID>
1198308-R-SPFL-05

>  <Well>
D02

>  <MW (desalted)>
153.197

>  <ClogP>
1.625

>  <HBD>
1

>  <TPSA>
26.020

>  <RotBonds>
2

$$$$

            

 13 13  0  0  0  0            999 V2000
    0.0000    0.0000    0.0000 Cl  0  0  0  0  0  0  0  0  0  0  0  0
    1.8857   -0.3399    0.0000 O   0  0  0  0  0  0  0  0  0  0  0  0
    2.6610   -0.0577    0.0000 C   0  0  0  0  0  0  0  0  0  0  0  0
    2.8042    0.7548    0.0000 O   0  0  0  0  0  0  0  0  0  0  0  0
    3.2929   -0.5880    0.0000 C   0  0  0  0  0  0  0  0  0  0  0  0
    3.7054   -1.3025    0.0000 C   0  0  0  0  0  0  0  0  0  0  0  0
    2.8804   -1.3025    0.0000 C   0  0  0  0  0  0  0  0  0  0  0  0
    3.9249   -0.0577    0.0000 C   0  0  0  0  0  0  0  0  0  0  0  0
    3.7817    0.7548    0.0000 C   0  0  0  0  0  0  0  0  0  0  0  0
    4.4137    1.2851    0.0000 C   0  0  0  0  0  0  0  0  0  0  0  0
    5.1889    1.0029    0.0000 C   0  0  0  0  0  0  0  0  0  0  0  0
    5.3322    0.1904    0.0000 N   0  0  0  0  0  0  0  0  0  0  0  0
    4.7002   -0.3399    0.0000 C   0  0  0  0  0  0  0  0  0  0  0  0
  2  3  1  0  0  0  0
  3  4  2  0  0  0  0
  3  5  1  0  0  0  0
  5  6  1  0  0  0  0
  6  7  1  0  0  0  0
  5  7  1  0  0  0  0
  5  8  1  0  0  0  0
  8  9  2  0  0  0  0
  9 10  1  0  0  0  0
 10 11  2  0  0  0  0
 11 12  1  0  0  0  0
 12 13  2  0  0  0  0
  8 13  1  0  0  0  0
M  END
>  <Catalog ID>
Z1966486321

>  <PlateID>
1198308-R-SPFL-05

>  <Well>
D03

>  <MW (desalted)>
163.173

>  <ClogP>
0.261

>  <HBD>
1

>  <TPSA>
50.190

>  <RotBonds>
2

$$$$

            

 14 13  0  0  0  0            999 V2000
    0.0000    0.0000    0.0000 Cl  0  0  0  0  0  0  0  0  0  0  0  0
    2.0036    0.0000    0.0000 Cl  0  0  0  0  0  0  0  0  0  0  0  0
   -1.5113   -4.7256    0.0000 C   0  0  0  0  0  0  0  0  0  0  0  0
   -1.2564   -3.9410    0.0000 N   0  0  0  0  0  0  0  0  0  0  0  0
   -0.4494   -3.7695    0.0000 C   0  0  0  0  0  0  0  0  0  0  0  0
   -0.1944   -2.9849    0.0000 C   0  0  0  0  0  0  0  0  0  0  0  0
   -0.6794   -2.3174    0.0000 C   0  0  0  0  0  0  0  0  0  0  0  0
   -1.5044   -2.3174    0.0000 C   0  0  0  0  0  0  0  0  0  0  0  0
   -0.1944   -1.6500    0.0000 N   0  0  0  0  0  0  0  0  0  0  0  0
    0.5902   -1.9049    0.0000 C   0  0  0  0  0  0  0  0  0  0  0  0
    1.3748   -1.6500    0.0000 S   0  0  0  0  0  0  0  0  0  0  0  0
    1.8597   -2.3174    0.0000 C   0  0  0  0  0  0  0  0  0  0  0  0
    1.3748   -2.9849    0.0000 C   0  0  0  0  0  0  0  0  0  0  0  0
    0.5902   -2.7299    0.0000 N   0  0  0  0  0  0  0  0  0  0  0  0
  3  4  1  0  0  0  0
  4  5  1  0  0  0  0
  5  6  1  0  0  0  0
  6  7  2  0  0  0  0
  7  8  1  0  0  0  0
  7  9  1  0  0  0  0
  9 10  2  0  0  0  0
 10 11  1  0  0  0  0
 11 12  1  0  0  0  0
 12 13  2  0  0  0  0
 13 14  1  0  0  0  0
  6 14  1  0  0  0  0
 10 14  1  0  0  0  0
M  END
>  <Catalog ID>
Z1160899457

>  <PlateID>
1198308-R-SPFL-05

>  <Well>
D04

>  <MW (desalted)>
181.258

>  <ClogP>
0.984

>  <HBD>
1

>  <TPSA>
29.330

>  <RotBonds>
2

$$$$

            

 11 12  0  0  0  0            999 V2000
    0.2076   -1.8785    0.0000 O   0  0  0  0  0  0  0  0  0  0  0  0
    1.0146   -1.7070    0.0000 C   0  0  0  0  0  0  0  0  0  0  0  0
    1.5666   -2.3201    0.0000 O   0  0  0  0  0  0  0  0  0  0  0  0
    1.2695   -0.9224    0.0000 C   0  0  0  0  0  0  0  0  0  0  0  0
    0.7846   -0.2549    0.0000 O   0  0  0  0  0  0  0  0  0  0  0  0
    1.2695    0.4125    0.0000 C   0  0  0  0  0  0  0  0  0  0  0  0
    2.0542    0.1576    0.0000 C   0  0  0  0  0  0  0  0  0  0  0  0
    2.8388    0.4125    0.0000 C   0  0  0  0  0  0  0  0  0  0  0  0
    3.3237   -0.2549    0.0000 C   0  0  0  0  0  0  0  0  0  0  0  0
    2.8388   -0.9224    0.0000 C   0  0  0  0  0  0  0  0  0  0  0  0
    2.0542   -0.6674    0.0000 C   0  0  0  0  0  0  0  0  0  0  0  0
  1  2  1  0  0  0  0
  2  3  2  0  0  0  0
  2  4  1  0  0  0  0
  4  5  1  0  0  0  0
  5  6  1  0  0  0  0
  6  7  2  0  0  0  0
  7  8  1  0  0  0  0
  8  9  1  0  0  0  0
  9 10  1  0  0  0  0
 10 11  1  0  0  0  0
  4 11  2  0  0  0  0
  7 11  1  0  0  0  0
M  END
>  <Catalog ID>
Z1723876890

>  <PlateID>
1198308-R-SPFL-05

>  <Well>
D05

>  <MW (desalted)>
152.147

>  <ClogP>
2.074

>  <HBD>
1

>  <TPSA>
50.440

>  <RotBonds>
1

$$$$

            

 15 16  0  0  0  0            999 V2000
    1.4289    0.8250    0.0000 O   0  0  0  0  0  0  0  0  0  0  0  0
    1.4289   -0.0000    0.0000 C   0  0  0  0  0  0  0  0  0  0  0  0
    2.1434   -0.4125    0.0000 O   0  0  0  0  0  0  0  0  0  0  0  0
    0.7145   -0.4125    0.0000 C   0  0  0  0  0  0  0  0  0  0  0  0
    0.7145   -1.2375    0.0000 C   0  0  0  0  0  0  0  0  0  0  0  0
    1.3819   -1.7224    0.0000 C   0  0  0  0  0  0  0  0  0  0  0  0
    1.1270   -2.5070    0.0000 O   0  0  0  0  0  0  0  0  0  0  0  0
    0.3020   -2.5070    0.0000 C   0  0  0  0  0  0  0  0  0  0  0  0
    0.0470   -1.7224    0.0000 N   0  0  0  0  0  0  0  0  0  0  0  0
   -0.1830   -3.1745    0.0000 C   0  0  0  0  0  0  0  0  0  0  0  0
    0.1526   -3.9282    0.0000 C   0  0  0  0  0  0  0  0  0  0  0  0
   -0.3323   -4.5956    0.0000 C   0  0  0  0  0  0  0  0  0  0  0  0
   -1.1528   -4.5094    0.0000 C   0  0  0  0  0  0  0  0  0  0  0  0
   -1.4884   -3.7557    0.0000 C   0  0  0  0  0  0  0  0  0  0  0  0
   -1.0034   -3.0882    0.0000 C   0  0  0  0  0  0  0  0  0  0  0  0
  1  2  1  0  0  0  0
  2  3  2  0  0  0  0
  2  4  1  0  0  0  0
  4  5  1  0  0  0  0
  5  6  2  0  0  0  0
  6  7  1  0  0  0  0
  7  8  1  0  0  0  0
  8  9  2  0  0  0  0
  5  9  1  0  0  0  0
  8 10  1  0  0  0  0
 10 11  2  0  0  0  0
 11 12  1  0  0  0  0
 12 13  2  0  0  0  0
 13 14  1  0  0  0  0
 14 15  2  0  0  0  0
 10 15  1  0  0  0  0
M  END
>  <Catalog ID>
Z156943128

>  <PlateID>
1198308-R-SPFL-05

>  <Well>
D06

>  <MW (desalted)>
203.194

>  <ClogP>
1.191

>  <HBD>
1

>  <TPSA>
63.330

>  <RotBonds>
3

$$$$

            

 14 15  0  0  0  0            999 V2000
    2.1434   -0.4125    0.0000 O   0  0  0  0  0  0  0  0  0  0  0  0
    2.1434   -1.2375    0.0000 C   0  0  0  0  0  0  0  0  0  0  0  0
    2.8579   -1.6500    0.0000 C   0  0  0  0  0  0  0  0  0  0  0  0
    2.8579   -2.4750    0.0000 C   0  0  0  0  0  0  0  0  0  0  0  0
    3.5724   -2.8875    0.0000 C   0  0  0  0  0  0  0  0  0  0  0  0
    3.5724   -3.7125    0.0000 C   0  0  0  0  0  0  0  0  0  0  0  0
    4.2868   -4.1250    0.0000 C   0  0  0  0  0  0  0  0  0  0  0  0
    4.2868   -4.9500    0.0000 C   0  0  0  0  0  0  0  0  0  0  0  0
    3.5724   -5.3625    0.0000 C   0  0  0  0  0  0  0  0  0  0  0  0
    2.8579   -4.9500    0.0000 C   0  0  0  0  0  0  0  0  0  0  0  0
    2.8579   -4.1250    0.0000 C   0  0  0  0  0  0  0  0  0  0  0  0
    2.1434   -2.8875    0.0000 C   0  0  0  0  0  0  0  0  0  0  0  0
    1.4289   -2.4750    0.0000 C   0  0  0  0  0  0  0  0  0  0  0  0
    1.4289   -1.6500    0.0000 N   0  0  0  0  0  0  0  0  0  0  0  0
  1  2  2  0  0  0  0
  2  3  1  0  0  0  0
  3  4  1  0  0  0  0
  4  5  1  0  0  0  0
  5  6  1  0  0  0  0
  6  7  2  0  0  0  0
  7  8  1  0  0  0  0
  8  9  2  0  0  0  0
  9 10  1  0  0  0  0
 10 11  2  0  0  0  0
  6 11  1  0  0  0  0
  4 12  1  0  0  0  0
 12 13  1  0  0  0  0
 13 14  1  0  0  0  0
  2 14  1  0  0  0  0
M  END
>  <Catalog ID>
Z1509151018

>  <PlateID>
1198308-R-SPFL-05

>  <Well>
D07

>  <MW (desalted)>
189.254

>  <ClogP>
1.523

>  <HBD>
1

>  <TPSA>
29.100

>  <RotBonds>
2

$$$$

            

 13 14  0  0  0  0            999 V2000
    0.7145   -1.2375    0.0000 C   0  0  0  0  0  0  0  0  0  0  0  0
    1.4289   -1.6500    0.0000 C   0  0  0  0  0  0  0  0  0  0  0  0
    1.4289   -2.4750    0.0000 N   0  0  0  0  0  0  0  0  0  0  0  0
    2.0964   -2.9599    0.0000 C   0  0  0  0  0  0  0  0  0  0  0  0
    1.8414   -3.7445    0.0000 N   0  0  0  0  0  0  0  0  0  0  0  0
    1.0164   -3.7445    0.0000 C   0  0  0  0  0  0  0  0  0  0  0  0
    0.7615   -2.9599    0.0000 N   0  0  0  0  0  0  0  0  0  0  0  0
    0.7145   -0.4125    0.0000 C   0  0  0  0  0  0  0  0  0  0  0  0
    0.0000    0.0000    0.0000 C   0  0  0  0  0  0  0  0  0  0  0  0
    0.0000    0.8250    0.0000 C   0  0  0  0  0  0  0  0  0  0  0  0
    0.7145    1.2375    0.0000 C   0  0  0  0  0  0  0  0  0  0  0  0
    1.4289    0.8250    0.0000 C   0  0  0  0  0  0  0  0  0  0  0  0
    1.4289    0.0000    0.0000 C   0  0  0  0  0  0  0  0  0  0  0  0
  1  2  1  0  0  0  0
  2  3  1  0  0  0  0
  3  4  1  0  0  0  0
  4  5  2  0  0  0  0
  5  6  1  0  0  0  0
  6  7  2  0  0  0  0
  3  7  1  0  0  0  0
  1  8  1  0  0  0  0
  8  9  2  0  0  0  0
  9 10  1  0  0  0  0
 10 11  2  0  0  0  0
 11 12  1  0  0  0  0
 12 13  2  0  0  0  0
  8 13  1  0  0  0  0
M  END
>  <Catalog ID>
Z1157797550

>  <PlateID>
1198308-R-SPFL-05

>  <Well>
D08

>  <MW (desalted)>
173.214

>  <ClogP>
1.354

>  <HBD>
0

>  <TPSA>
30.710

>  <RotBonds>
3

$$$$

            

 16 15  0  0  0  0            999 V2000
    0.0000    0.0000    0.0000 Cl  0  0  0  0  0  0  0  0  0  0  0  0
    2.0036    0.0000    0.0000 Cl  0  0  0  0  0  0  0  0  0  0  0  0
   -1.6075   -2.1114    0.0000 C   0  0  0  0  0  0  0  0  0  0  0  0
   -0.8032   -2.2950    0.0000 N   0  0  0  0  0  0  0  0  0  0  0  0
   -0.2888   -1.6500    0.0000 C   0  0  0  0  0  0  0  0  0  0  0  0
    0.5362   -1.6500    0.0000 C   0  0  0  0  0  0  0  0  0  0  0  0
    1.0505   -2.2950    0.0000 C   0  0  0  0  0  0  0  0  0  0  0  0
    0.8670   -3.0993    0.0000 N   0  0  0  0  0  0  0  0  0  0  0  0
    0.1237   -3.4573    0.0000 C   0  0  0  0  0  0  0  0  0  0  0  0
   -0.6196   -3.0993    0.0000 C   0  0  0  0  0  0  0  0  0  0  0  0
    0.1237   -4.2823    0.0000 C   0  0  0  0  0  0  0  0  0  0  0  0
    0.8381   -4.6948    0.0000 C   0  0  0  0  0  0  0  0  0  0  0  0
    0.8381   -5.5198    0.0000 C   0  0  0  0  0  0  0  0  0  0  0  0
    0.1237   -5.9323    0.0000 C   0  0  0  0  0  0  0  0  0  0  0  0
   -0.5908   -5.5198    0.0000 C   0  0  0  0  0  0  0  0  0  0  0  0
   -0.5908   -4.6948    0.0000 C   0  0  0  0  0  0  0  0  0  0  0  0
  3  4  1  0  0  0  0
  4  5  1  0  0  0  0
  5  6  1  0  0  0  0
  6  7  1  0  0  0  0
  7  8  1  0  0  0  0
  8  9  1  0  0  0  0
  9 10  1  0  0  0  0
  4 10  1  0  0  0  0
  9 11  1  0  0  0  0
 11 12  2  0  0  0  0
 12 13  1  0  0  0  0
 13 14  2  0  0  0  0
 14 15  1  0  0  0  0
 15 16  2  0  0  0  0
 11 16  1  0  0  0  0
M  END
>  <Catalog ID>
Z2238129726

>  <PlateID>
1198308-R-SPFL-05

>  <Well>
D09

>  <MW (desalted)>
190.285

>  <ClogP>
1.674

>  <HBD>
1

>  <TPSA>
15.270

>  <RotBonds>
1

$$$$

            

 13 14  0  0  0  0            999 V2000
    0.7145   -2.8875    0.0000 N   0  0  0  0  0  0  0  0  0  0  0  0
    1.4289   -2.4750    0.0000 C   0  0  0  0  0  0  0  0  0  0  0  0
    2.1434   -2.8875    0.0000 O   0  0  0  0  0  0  0  0  0  0  0  0
    1.4289   -1.6500    0.0000 C   0  0  0  0  0  0  0  0  0  0  0  0
    0.7145   -1.2375    0.0000 C   0  0  0  0  0  0  0  0  0  0  0  0
    0.7145   -0.4125    0.0000 C   0  0  0  0  0  0  0  0  0  0  0  0
    1.4289    0.0000    0.0000 C   0  0  0  0  0  0  0  0  0  0  0  0
    2.1434   -0.4125    0.0000 C   0  0  0  0  0  0  0  0  0  0  0  0
    2.8579    0.0000    0.0000 N   0  0  0  0  0  0  0  0  0  0  0  0
    3.5724   -0.4125    0.0000 C   0  0  0  0  0  0  0  0  0  0  0  0
    3.5724   -1.2375    0.0000 C   0  0  0  0  0  0  0  0  0  0  0  0
    2.8579   -1.6500    0.0000 C   0  0  0  0  0  0  0  0  0  0  0  0
    2.1434   -1.2375    0.0000 C   0  0  0  0  0  0  0  0  0  0  0  0
  1  2  1  0  0  0  0
  2  3  2  0  0  0  0
  2  4  1  0  0  0  0
  4  5  2  0  0  0  0
  5  6  1  0  0  0  0
  6  7  2  0  0  0  0
  7  8  1  0  0  0  0
  8  9  2  0  0  0  0
  9 10  1  0  0  0  0
 10 11  2  0  0  0  0
 11 12  1  0  0  0  0
 12 13  2  0  0  0  0
  4 13  1  0  0  0  0
  8 13  1  0  0  0  0
M  END
>  <Catalog ID>
Z241898556

>  <PlateID>
1198308-R-SPFL-05

>  <Well>
D10

>  <MW (desalted)>
172.183

>  <ClogP>
1.019

>  <HBD>
1

>  <TPSA>
55.980

>  <RotBonds>
1

$$$$

            

 11 12  0  0  0  0            999 V2000
    0.0000   -1.6500    0.0000 N   0  0  0  0  0  0  0  0  0  0  0  0
    0.7145   -1.2375    0.0000 C   0  0  0  0  0  0  0  0  0  0  0  0
    0.7145   -0.4125    0.0000 C   0  0  0  0  0  0  0  0  0  0  0  0
    1.4289    0.0000    0.0000 C   0  0  0  0  0  0  0  0  0  0  0  0
    2.1434   -0.4125    0.0000 C   0  0  0  0  0  0  0  0  0  0  0  0
    2.8579    0.0000    0.0000 C   0  0  0  0  0  0  0  0  0  0  0  0
    3.5724   -0.4125    0.0000 C   0  0  0  0  0  0  0  0  0  0  0  0
    3.5724   -1.2375    0.0000 C   0  0  0  0  0  0  0  0  0  0  0  0
    2.8579   -1.6500    0.0000 C   0  0  0  0  0  0  0  0  0  0  0  0
    2.1434   -1.2375    0.0000 C   0  0  0  0  0  0  0  0  0  0  0  0
    1.4289   -1.6500    0.0000 C   0  0  0  0  0  0  0  0  0  0  0  0
  1  2  1  0  0  0  0
  2  3  1  0  0  0  0
  3  4  1  0  0  0  0
  4  5  1  0  0  0  0
  5  6  2  0  0  0  0
  6  7  1  0  0  0  0
  7  8  2  0  0  0  0
  8  9  1  0  0  0  0
  9 10  2  0  0  0  0
  5 10  1  0  0  0  0
 10 11  1  0  0  0  0
  2 11  1  0  0  0  0
M  END
>  <Catalog ID>
Z147642890

>  <PlateID>
1198308-R-SPFL-05

>  <Well>
D11

>  <MW (desalted)>
147.217

>  <ClogP>
1.877

>  <HBD>
1

>  <TPSA>
26.020

>  <RotBonds>
0

$$$$

            

 12 12  0  0  0  0            999 V2000
    0.0000    0.0000    0.0000 Cl  0  0  0  0  0  0  0  0  0  0  0  0
    4.3345    2.2075    0.0000 C   0  0  0  0  0  0  0  0  0  0  0  0
    4.3345    1.3825    0.0000 C   0  0  0  0  0  0  0  0  0  0  0  0
    5.0019    0.8976    0.0000 N   0  0  0  0  0  0  0  0  0  0  0  0
    4.7470    0.1130    0.0000 O   0  0  0  0  0  0  0  0  0  0  0  0
    3.9220    0.1130    0.0000 C   0  0  0  0  0  0  0  0  0  0  0  0
    3.6671    0.8976    0.0000 N   0  0  0  0  0  0  0  0  0  0  0  0
    3.4371   -0.5545    0.0000 C   0  0  0  0  0  0  0  0  0  0  0  0
    3.6920   -1.3391    0.0000 C   0  0  0  0  0  0  0  0  0  0  0  0
    3.0246   -1.8240    0.0000 C   0  0  0  0  0  0  0  0  0  0  0  0
    2.3571   -1.3391    0.0000 C   0  0  0  0  0  0  0  0  0  0  0  0
    2.6121   -0.5545    0.0000 N   0  0  0  0  0  0  0  0  0  0  0  0
  2  3  1  0  0  0  0
  3  4  2  0  0  0  0
  4  5  1  0  0  0  0
  5  6  1  0  0  0  0
  6  7  2  0  0  0  0
  3  7  1  0  0  0  0
  6  8  1  0  0  0  0
  8  9  1  0  0  0  0
  9 10  1  0  0  0  0
 10 11  1  0  0  0  0
 11 12  1  0  0  0  0
  8 12  1  0  0  0  0
M  END
>  <Catalog ID>
Z1496024599

>  <PlateID>
1198308-R-SPFL-05

>  <Well>
E02

>  <MW (desalted)>
153.182

>  <ClogP>
-0.445

>  <HBD>
1

>  <TPSA>
50.950

>  <RotBonds>
1

$$$$

            

 14 12  0  0  0  0            999 V2000
    0.0000    0.0000    0.0000 Cl  0  0  0  0  0  0  0  0  0  0  0  0
    2.0036    0.0000    0.0000 Cl  0  0  0  0  0  0  0  0  0  0  0  0
   -0.4168   -1.6500    0.0000 N   0  0  0  0  0  0  0  0  0  0  0  0
    0.2977   -2.0625    0.0000 C   0  0  0  0  0  0  0  0  0  0  0  0
    0.2977   -2.8875    0.0000 C   0  0  0  0  0  0  0  0  0  0  0  0
    1.0122   -3.3000    0.0000 C   0  0  0  0  0  0  0  0  0  0  0  0
    1.0122   -4.1250    0.0000 C   0  0  0  0  0  0  0  0  0  0  0  0
    0.2977   -4.5375    0.0000 N   0  0  0  0  0  0  0  0  0  0  0  0
    0.2977   -5.3625    0.0000 C   0  0  0  0  0  0  0  0  0  0  0  0
   -0.4168   -5.7750    0.0000 C   0  0  0  0  0  0  0  0  0  0  0  0
   -0.4168   -6.6000    0.0000 F   0  0  0  0  0  0  0  0  0  0  0  0
   -1.1312   -5.3625    0.0000 F   0  0  0  0  0  0  0  0  0  0  0  0
   -0.4168   -4.1250    0.0000 C   0  0  0  0  0  0  0  0  0  0  0  0
   -0.4168   -3.3000    0.0000 C   0  0  0  0  0  0  0  0  0  0  0  0
  3  4  1  0  0  0  0
  4  5  1  0  0  0  0
  5  6  1  0  0  0  0
  6  7  1  0  0  0  0
  7  8  1  0  0  0  0
  8  9  1  0  0  0  0
  9 10  1  0  0  0  0
 10 11  1  0  0  0  0
 10 12  1  0  0  0  0
  8 13  1  0  0  0  0
 13 14  1  0  0  0  0
  5 14  1  0  0  0  0
M  END
>  <Catalog ID>
Z2158594990

>  <PlateID>
1198308-R-SPFL-05

>  <Well>
E03

>  <MW (desalted)>
178.223

>  <ClogP>
0.418

>  <HBD>
1

>  <TPSA>
29.260

>  <RotBonds>
3

$$$$

            

 10 11  0  0  0  0            999 V2000
    1.5342   -0.7349    0.0000 C   0  0  0  0  0  0  0  0  0  0  0  0
    2.2487   -1.1474    0.0000 N   0  0  0  0  0  0  0  0  0  0  0  0
    2.2487   -1.9724    0.0000 C   0  0  0  0  0  0  0  0  0  0  0  0
    2.6612   -2.6869    0.0000 C   0  0  0  0  0  0  0  0  0  0  0  0
    1.8362   -2.6869    0.0000 C   0  0  0  0  0  0  0  0  0  0  0  0
    1.5342    0.0901    0.0000 C   0  0  0  0  0  0  0  0  0  0  0  0
    0.8668    0.5750    0.0000 C   0  0  0  0  0  0  0  0  0  0  0  0
    1.1217    1.3596    0.0000 C   0  0  0  0  0  0  0  0  0  0  0  0
    1.9467    1.3596    0.0000 C   0  0  0  0  0  0  0  0  0  0  0  0
    2.2016    0.5750    0.0000 S   0  0  0  0  0  0  0  0  0  0  0  0
  1  2  1  0  0  0  0
  2  3  1  0  0  0  0
  3  4  1  0  0  0  0
  4  5  1  0  0  0  0
  3  5  1  0  0  0  0
  1  6  1  0  0  0  0
  6  7  2  0  0  0  0
  7  8  1  0  0  0  0
  8  9  2  0  0  0  0
  9 10  1  0  0  0  0
  6 10  1  0  0  0  0
M  END
>  <Catalog ID>
Z90517826

>  <PlateID>
1198308-R-SPFL-05

>  <Well>
E04

>  <MW (desalted)>
153.245

>  <ClogP>
1.740

>  <HBD>
1

>  <TPSA>
12.030

>  <RotBonds>
3

$$$$

            

 12 12  0  0  0  0            999 V2000
    0.7145    2.0625    0.0000 C   0  0  0  0  0  0  0  0  0  0  0  0
    0.7145    1.2375    0.0000 C   0  0  0  0  0  0  0  0  0  0  0  0
    1.4289    0.8250    0.0000 C   0  0  0  0  0  0  0  0  0  0  0  0
    1.4289   -0.0000    0.0000 C   0  0  0  0  0  0  0  0  0  0  0  0
    0.7145   -0.4125    0.0000 C   0  0  0  0  0  0  0  0  0  0  0  0
    0.7145   -1.2375    0.0000 O   0  0  0  0  0  0  0  0  0  0  0  0
    0.0000    0.0000    0.0000 N   0  0  0  0  0  0  0  0  0  0  0  0
    0.0000    0.8250    0.0000 N   0  0  0  0  0  0  0  0  0  0  0  0
    2.1434   -0.4125    0.0000 C   0  0  0  0  0  0  0  0  0  0  0  0
    2.8579   -0.8250    0.0000 F   0  0  0  0  0  0  0  0  0  0  0  0
    1.7309   -1.1270    0.0000 F   0  0  0  0  0  0  0  0  0  0  0  0
    2.5559    0.3020    0.0000 F   0  0  0  0  0  0  0  0  0  0  0  0
  1  2  1  0  0  0  0
  2  3  1  0  0  0  0
  3  4  2  0  0  0  0
  4  5  1  0  0  0  0
  5  6  2  0  0  0  0
  5  7  1  0  0  0  0
  7  8  1  0  0  0  0
  2  8  2  0  0  0  0
  4  9  1  0  0  0  0
  9 10  1  0  0  0  0
  9 11  1  0  0  0  0
  9 12  1  0  0  0  0
M  END
>  <Catalog ID>
Z234855612

>  <PlateID>
1198308-R-SPFL-05

>  <Well>
E05

>  <MW (desalted)>
178.112

>  <ClogP>
0.153

>  <HBD>
1

>  <TPSA>
41.460

>  <RotBonds>
1

$$$$

            

 12 13  0  0  0  0            999 V2000
    0.7145   -2.8875    0.0000 C   0  0  0  0  0  0  0  0  0  0  0  0
    1.4289   -2.4750    0.0000 O   0  0  0  0  0  0  0  0  0  0  0  0
    1.4289   -1.6500    0.0000 C   0  0  0  0  0  0  0  0  0  0  0  0
    0.7145   -1.2375    0.0000 C   0  0  0  0  0  0  0  0  0  0  0  0
    0.7145   -0.4125    0.0000 C   0  0  0  0  0  0  0  0  0  0  0  0
    1.4289    0.0000    0.0000 C   0  0  0  0  0  0  0  0  0  0  0  0
    2.1434   -0.4125    0.0000 C   0  0  0  0  0  0  0  0  0  0  0  0
    2.8579    0.0000    0.0000 N   0  0  0  0  0  0  0  0  0  0  0  0
    3.5724   -0.4125    0.0000 C   0  0  0  0  0  0  0  0  0  0  0  0
    3.5724   -1.2375    0.0000 C   0  0  0  0  0  0  0  0  0  0  0  0
    2.8579   -1.6500    0.0000 C   0  0  0  0  0  0  0  0  0  0  0  0
    2.1434   -1.2375    0.0000 C   0  0  0  0  0  0  0  0  0  0  0  0
  1  2  1  0  0  0  0
  2  3  1  0  0  0  0
  3  4  2  0  0  0  0
  4  5  1  0  0  0  0
  5  6  2  0  0  0  0
  6  7  1  0  0  0  0
  7  8  1  0  0  0  0
  8  9  1  0  0  0  0
  9 10  1  0  0  0  0
 10 11  1  0  0  0  0
 11 12  1  0  0  0  0
  3 12  1  0  0  0  0
  7 12  2  0  0  0  0
M  END
>  <Catalog ID>
Z2211246487

>  <PlateID>
1198308-R-SPFL-05

>  <Well>
E06

>  <MW (desalted)>
163.216

>  <ClogP>
2.288

>  <HBD>
1

>  <TPSA>
21.260

>  <RotBonds>
1

$$$$

            

 12 13  0  0  0  0            999 V2000
   -1.4087   -1.4124    0.0000 O   0  0  0  0  0  0  0  0  0  0  0  0
   -0.5837   -1.4124    0.0000 C   0  0  0  0  0  0  0  0  0  0  0  0
   -0.1712   -0.6979    0.0000 C   0  0  0  0  0  0  0  0  0  0  0  0
    0.6538   -0.6979    0.0000 C   0  0  0  0  0  0  0  0  0  0  0  0
    1.1387   -0.0305    0.0000 N   0  0  0  0  0  0  0  0  0  0  0  0
    1.9233   -0.2854    0.0000 C   0  0  0  0  0  0  0  0  0  0  0  0
    2.6378    0.1271    0.0000 C   0  0  0  0  0  0  0  0  0  0  0  0
    3.3523   -0.2854    0.0000 C   0  0  0  0  0  0  0  0  0  0  0  0
    3.3523   -1.1104    0.0000 C   0  0  0  0  0  0  0  0  0  0  0  0
    2.6378   -1.5229    0.0000 C   0  0  0  0  0  0  0  0  0  0  0  0
    1.9233   -1.1104    0.0000 C   0  0  0  0  0  0  0  0  0  0  0  0
    1.1387   -1.3654    0.0000 S   0  0  0  0  0  0  0  0  0  0  0  0
  1  2  1  0  0  0  0
  2  3  1  0  0  0  0
  3  4  1  0  0  0  0
  4  5  2  0  0  0  0
  5  6  1  0  0  0  0
  6  7  2  0  0  0  0
  7  8  1  0  0  0  0
  8  9  2  0  0  0  0
  9 10  1  0  0  0  0
 10 11  2  0  0  0  0
  6 11  1  0  0  0  0
 11 12  1  0  0  0  0
  4 12  1  0  0  0  0
M  END
>  <Catalog ID>
Z90122385

>  <PlateID>
1198308-R-SPFL-05

>  <Well>
E07

>  <MW (desalted)>
179.239

>  <ClogP>
1.271

>  <HBD>
1

>  <TPSA>
33.120

>  <RotBonds>
2

$$$$

            

 10 10  0  0  0  0            999 V2000
    0.5678    1.9393    0.0000 C   0  0  0  0  0  0  0  0  0  0  0  0
    0.5678    1.1143    0.0000 C   0  0  0  0  0  0  0  0  0  0  0  0
    1.2352    0.6294    0.0000 C   0  0  0  0  0  0  0  0  0  0  0  0
    0.9803   -0.1553    0.0000 N   0  0  0  0  0  0  0  0  0  0  0  0
    0.1553   -0.1553    0.0000 N   0  0  0  0  0  0  0  0  0  0  0  0
   -0.3297   -0.8227    0.0000 C   0  0  0  0  0  0  0  0  0  0  0  0
   -1.1501   -0.7365    0.0000 C   0  0  0  0  0  0  0  0  0  0  0  0
   -1.6351   -1.4039    0.0000 O   0  0  0  0  0  0  0  0  0  0  0  0
   -1.4857    0.0172    0.0000 O   0  0  0  0  0  0  0  0  0  0  0  0
   -0.0997    0.6294    0.0000 C   0  0  0  0  0  0  0  0  0  0  0  0
  1  2  1  0  0  0  0
  2  3  1  0  0  0  0
  3  4  2  0  0  0  0
  4  5  1  0  0  0  0
  5  6  1  0  0  0  0
  6  7  1  0  0  0  0
  7  8  2  0  0  0  0
  7  9  1  0  0  0  0
  5 10  1  0  0  0  0
  2 10  2  0  0  0  0
M  END
>  <Catalog ID>
Z600430806

>  <PlateID>
1198308-R-SPFL-05

>  <Well>
E08

>  <MW (desalted)>
140.140

>  <ClogP>
0.130

>  <HBD>
1

>  <TPSA>
55.120

>  <RotBonds>
2

$$$$

            

 12 13  0  0  0  0            999 V2000
    1.4289   -2.4750    0.0000 C   0  0  0  0  0  0  0  0  0  0  0  0
    1.4289   -1.6500    0.0000 N   0  0  0  0  0  0  0  0  0  0  0  0
    0.7145   -1.2375    0.0000 C   0  0  0  0  0  0  0  0  0  0  0  0
    0.7145   -0.4125    0.0000 C   0  0  0  0  0  0  0  0  0  0  0  0
    0.0000    0.0000    0.0000 O   0  0  0  0  0  0  0  0  0  0  0  0
    1.4289    0.0000    0.0000 N   0  0  0  0  0  0  0  0  0  0  0  0
    2.1434   -0.4125    0.0000 C   0  0  0  0  0  0  0  0  0  0  0  0
    2.8579    0.0000    0.0000 C   0  0  0  0  0  0  0  0  0  0  0  0
    3.5724   -0.4125    0.0000 C   0  0  0  0  0  0  0  0  0  0  0  0
    3.5724   -1.2375    0.0000 C   0  0  0  0  0  0  0  0  0  0  0  0
    2.8579   -1.6500    0.0000 N   0  0  0  0  0  0  0  0  0  0  0  0
    2.1434   -1.2375    0.0000 C   0  0  0  0  0  0  0  0  0  0  0  0
  1  2  1  0  0  0  0
  2  3  1  0  0  0  0
  3  4  1  0  0  0  0
  4  5  2  0  0  0  0
  4  6  1  0  0  0  0
  6  7  1  0  0  0  0
  7  8  2  0  0  0  0
  8  9  1  0  0  0  0
  9 10  2  0  0  0  0
 10 11  1  0  0  0  0
 11 12  2  0  0  0  0
  2 12  1  0  0  0  0
  7 12  1  0  0  0  0
M  END
>  <Catalog ID>
Z1198175996

>  <PlateID>
1198308-R-SPFL-05

>  <Well>
E09

>  <MW (desalted)>
163.177

>  <ClogP>
1.125

>  <HBD>
1

>  <TPSA>
45.230

>  <RotBonds>
0

$$$$

            

 11 12  0  0  0  0            999 V2000
    0.8838   -2.1500    0.0000 C   0  0  0  0  0  0  0  0  0  0  0  0
    1.1387   -1.3654    0.0000 N   0  0  0  0  0  0  0  0  0  0  0  0
    0.6538   -0.6979    0.0000 N   0  0  0  0  0  0  0  0  0  0  0  0
    1.1387   -0.0305    0.0000 C   0  0  0  0  0  0  0  0  0  0  0  0
    0.8838    0.7541    0.0000 O   0  0  0  0  0  0  0  0  0  0  0  0
    1.9233   -0.2854    0.0000 C   0  0  0  0  0  0  0  0  0  0  0  0
    2.6378    0.1271    0.0000 C   0  0  0  0  0  0  0  0  0  0  0  0
    3.3523   -0.2854    0.0000 C   0  0  0  0  0  0  0  0  0  0  0  0
    3.3523   -1.1104    0.0000 C   0  0  0  0  0  0  0  0  0  0  0  0
    2.6378   -1.5229    0.0000 C   0  0  0  0  0  0  0  0  0  0  0  0
    1.9233   -1.1104    0.0000 C   0  0  0  0  0  0  0  0  0  0  0  0
  1  2  1  0  0  0  0
  2  3  1  0  0  0  0
  3  4  1  0  0  0  0
  4  5  2  0  0  0  0
  4  6  1  0  0  0  0
  6  7  2  0  0  0  0
  7  8  1  0  0  0  0
  8  9  2  0  0  0  0
  9 10  1  0  0  0  0
 10 11  2  0  0  0  0
  2 11  1  0  0  0  0
  6 11  1  0  0  0  0
M  END
>  <Catalog ID>
Z1255452290

>  <PlateID>
1198308-R-SPFL-05

>  <Well>
E10

>  <MW (desalted)>
148.162

>  <ClogP>
1.614

>  <HBD>
1

>  <TPSA>
32.340

>  <RotBonds>
0

$$$$

            

 11 12  0  0  0  0            999 V2000
    0.8838   -2.1500    0.0000 C   0  0  0  0  0  0  0  0  0  0  0  0
    1.1387   -1.3654    0.0000 N   0  0  0  0  0  0  0  0  0  0  0  0
    0.6538   -0.6979    0.0000 N   0  0  0  0  0  0  0  0  0  0  0  0
    1.1387   -0.0305    0.0000 C   0  0  0  0  0  0  0  0  0  0  0  0
    1.9233   -0.2854    0.0000 C   0  0  0  0  0  0  0  0  0  0  0  0
    2.6378    0.1271    0.0000 C   0  0  0  0  0  0  0  0  0  0  0  0
    2.6378    0.9521    0.0000 N   0  0  0  0  0  0  0  0  0  0  0  0
    3.3523   -0.2854    0.0000 C   0  0  0  0  0  0  0  0  0  0  0  0
    3.3523   -1.1104    0.0000 C   0  0  0  0  0  0  0  0  0  0  0  0
    2.6378   -1.5229    0.0000 C   0  0  0  0  0  0  0  0  0  0  0  0
    1.9233   -1.1104    0.0000 C   0  0  0  0  0  0  0  0  0  0  0  0
  1  2  1  0  0  0  0
  2  3  1  0  0  0  0
  3  4  2  0  0  0  0
  4  5  1  0  0  0  0
  5  6  1  0  0  0  0
  6  7  1  0  0  0  0
  6  8  1  0  0  0  0
  8  9  1  0  0  0  0
  9 10  1  0  0  0  0
 10 11  1  0  0  0  0
  5 11  2  0  0  0  0
  2 11  1  0  0  0  0
M  END
>  <Catalog ID>
Z336028558

>  <PlateID>
1198308-R-SPFL-05

>  <Well>
E11

>  <MW (desalted)>
151.209

>  <ClogP>
-0.048

>  <HBD>
1

>  <TPSA>
43.840

>  <RotBonds>
0

$$$$

            

 13 14  0  0  0  0            999 V2000
   -0.1781   -3.1062    0.0000 O   0  0  0  0  0  0  0  0  0  0  0  0
    0.0768   -2.3215    0.0000 C   0  0  0  0  0  0  0  0  0  0  0  0
   -0.4752   -1.7084    0.0000 O   0  0  0  0  0  0  0  0  0  0  0  0
    0.8838   -2.1500    0.0000 C   0  0  0  0  0  0  0  0  0  0  0  0
    1.1387   -1.3654    0.0000 C   0  0  0  0  0  0  0  0  0  0  0  0
    0.6538   -0.6979    0.0000 O   0  0  0  0  0  0  0  0  0  0  0  0
    1.1387   -0.0305    0.0000 C   0  0  0  0  0  0  0  0  0  0  0  0
    1.9233   -0.2854    0.0000 C   0  0  0  0  0  0  0  0  0  0  0  0
    2.6378    0.1271    0.0000 C   0  0  0  0  0  0  0  0  0  0  0  0
    3.3523   -0.2854    0.0000 C   0  0  0  0  0  0  0  0  0  0  0  0
    3.3523   -1.1104    0.0000 C   0  0  0  0  0  0  0  0  0  0  0  0
    2.6378   -1.5229    0.0000 C   0  0  0  0  0  0  0  0  0  0  0  0
    1.9233   -1.1104    0.0000 C   0  0  0  0  0  0  0  0  0  0  0  0
  1  2  1  0  0  0  0
  2  3  2  0  0  0  0
  2  4  1  0  0  0  0
  4  5  1  0  0  0  0
  5  6  1  0  0  0  0
  6  7  1  0  0  0  0
  7  8  1  0  0  0  0
  8  9  2  0  0  0  0
  9 10  1  0  0  0  0
 10 11  2  0  0  0  0
 11 12  1  0  0  0  0
 12 13  2  0  0  0  0
  5 13  1  0  0  0  0
  8 13  1  0  0  0  0
M  END
>  <Catalog ID>
Z1262557291

>  <PlateID>
1198308-R-SPFL-05

>  <Well>
F02

>  <MW (desalted)>
178.185

>  <ClogP>
1.377

>  <HBD>
1

>  <TPSA>
46.530

>  <RotBonds>
2

$$$$

            

 11 12  0  0  0  0            999 V2000
    1.4289   -2.4750    0.0000 N   0  0  0  0  0  0  0  0  0  0  0  0
    1.4289   -1.6500    0.0000 C   0  0  0  0  0  0  0  0  0  0  0  0
    0.7145   -1.2375    0.0000 N   0  0  0  0  0  0  0  0  0  0  0  0
    0.7145   -0.4125    0.0000 C   0  0  0  0  0  0  0  0  0  0  0  0
    1.4289    0.0000    0.0000 N   0  0  0  0  0  0  0  0  0  0  0  0
    2.1434   -0.4125    0.0000 C   0  0  0  0  0  0  0  0  0  0  0  0
    2.8579    0.0000    0.0000 C   0  0  0  0  0  0  0  0  0  0  0  0
    3.5724   -0.4125    0.0000 C   0  0  0  0  0  0  0  0  0  0  0  0
    3.5724   -1.2375    0.0000 C   0  0  0  0  0  0  0  0  0  0  0  0
    2.8579   -1.6500    0.0000 C   0  0  0  0  0  0  0  0  0  0  0  0
    2.1434   -1.2375    0.0000 C   0  0  0  0  0  0  0  0  0  0  0  0
  1  2  1  0  0  0  0
  2  3  2  0  0  0  0
  3  4  1  0  0  0  0
  4  5  2  0  0  0  0
  5  6  1  0  0  0  0
  6  7  2  0  0  0  0
  7  8  1  0  0  0  0
  8  9  2  0  0  0  0
  9 10  1  0  0  0  0
 10 11  2  0  0  0  0
  2 11  1  0  0  0  0
  6 11  1  0  0  0  0
M  END
>  <Catalog ID>
Z99599970

>  <PlateID>
1198308-R-SPFL-05

>  <Well>
F03

>  <MW (desalted)>
145.161

>  <ClogP>
1.060

>  <HBD>
1

>  <TPSA>
51.800

>  <RotBonds>
0

$$$$

            

 11 12  0  0  0  0            999 V2000
    2.0367    4.3527    0.0000 C   0  0  0  0  0  0  0  0  0  0  0  0
    2.7512    4.7652    0.0000 C   0  0  0  0  0  0  0  0  0  0  0  0
    3.4656    4.3527    0.0000 N   0  0  0  0  0  0  0  0  0  0  0  0
    3.4656    3.5277    0.0000 C   0  0  0  0  0  0  0  0  0  0  0  0
    2.7512    3.1152    0.0000 C   0  0  0  0  0  0  0  0  0  0  0  0
    2.0367    3.5277    0.0000 C   0  0  0  0  0  0  0  0  0  0  0  0
    2.7512    2.2902    0.0000 N   0  0  0  0  0  0  0  0  0  0  0  0
    3.4186    1.8053    0.0000 C   0  0  0  0  0  0  0  0  0  0  0  0
    3.1637    1.0206    0.0000 C   0  0  0  0  0  0  0  0  0  0  0  0
    2.3387    1.0206    0.0000 N   0  0  0  0  0  0  0  0  0  0  0  0
    2.0837    1.8053    0.0000 C   0  0  0  0  0  0  0  0  0  0  0  0
  1  2  1  0  0  0  0
  2  3  1  0  0  0  0
  3  4  1  0  0  0  0
  4  5  1  0  0  0  0
  5  6  1  0  0  0  0
  1  6  1  0  0  0  0
  5  7  1  0  0  0  0
  7  8  1  0  0  0  0
  8  9  2  0  0  0  0
  9 10  1  0  0  0  0
 10 11  2  0  0  0  0
  7 11  1  0  0  0  0
M  END
>  <Catalog ID>
Z803130616

>  <PlateID>
1198308-R-SPFL-05

>  <Well>
F04

>  <MW (desalted)>
151.209

>  <ClogP>
0.028

>  <HBD>
1

>  <TPSA>
29.850

>  <RotBonds>
1

$$$$

            

 12 13  0  0  0  0            999 V2000
    0.0000   -0.0000    0.0000 C   0  0  0  0  0  0  0  0  0  0  0  0
    0.7145   -0.4125    0.0000 C   0  0  0  0  0  0  0  0  0  0  0  0
    1.4289    0.0000    0.0000 N   0  0  0  0  0  0  0  0  0  0  0  0
    2.1434   -0.4125    0.0000 C   0  0  0  0  0  0  0  0  0  0  0  0
    2.8579    0.0000    0.0000 C   0  0  0  0  0  0  0  0  0  0  0  0
    3.5724   -0.4125    0.0000 C   0  0  0  0  0  0  0  0  0  0  0  0
    3.5724   -1.2375    0.0000 C   0  0  0  0  0  0  0  0  0  0  0  0
    2.8579   -1.6500    0.0000 C   0  0  0  0  0  0  0  0  0  0  0  0
    2.1434   -1.2375    0.0000 C   0  0  0  0  0  0  0  0  0  0  0  0
    1.4289   -1.6500    0.0000 N   0  0  0  0  0  0  0  0  0  0  0  0
    0.7145   -1.2375    0.0000 C   0  0  0  0  0  0  0  0  0  0  0  0
    0.0000   -1.6500    0.0000 O   0  0  0  0  0  0  0  0  0  0  0  0
  1  2  1  0  0  0  0
  2  3  1  0  0  0  0
  3  4  1  0  0  0  0
  4  5  2  0  0  0  0
  5  6  1  0  0  0  0
  6  7  2  0  0  0  0
  7  8  1  0  0  0  0
  8  9  2  0  0  0  0
  4  9  1  0  0  0  0
  9 10  1  0  0  0  0
 10 11  1  0  0  0  0
  2 11  1  0  0  0  0
 11 12  2  0  0  0  0
M  END
>  <Catalog ID>
Z1201619874

>  <PlateID>
1198308-R-SPFL-05

>  <Well>
F05

>  <MW (desalted)>
162.189

>  <ClogP>
0.949

>  <HBD>
2

>  <TPSA>
41.130

>  <RotBonds>
0

$$$$

            

 12 13  0  0  0  0            999 V2000
   -0.6078   -0.4741    0.0000 C   0  0  0  0  0  0  0  0  0  0  0  0
   -1.3222   -0.0616    0.0000 N   0  0  0  0  0  0  0  0  0  0  0  0
   -2.0367   -0.4741    0.0000 C   0  0  0  0  0  0  0  0  0  0  0  0
   -2.7512   -0.0616    0.0000 C   0  0  0  0  0  0  0  0  0  0  0  0
   -2.7512    0.7634    0.0000 N   0  0  0  0  0  0  0  0  0  0  0  0
   -2.0367    1.1759    0.0000 C   0  0  0  0  0  0  0  0  0  0  0  0
   -1.3222    0.7634    0.0000 C   0  0  0  0  0  0  0  0  0  0  0  0
   -0.6078   -1.2991    0.0000 C   0  0  0  0  0  0  0  0  0  0  0  0
    0.0597   -1.7840    0.0000 C   0  0  0  0  0  0  0  0  0  0  0  0
   -0.1953   -2.5687    0.0000 C   0  0  0  0  0  0  0  0  0  0  0  0
   -1.0203   -2.5687    0.0000 S   0  0  0  0  0  0  0  0  0  0  0  0
   -1.2752   -1.7840    0.0000 C   0  0  0  0  0  0  0  0  0  0  0  0
  1  2  1  0  0  0  0
  2  3  1  0  0  0  0
  3  4  1  0  0  0  0
  4  5  1  0  0  0  0
  5  6  1  0  0  0  0
  6  7  1  0  0  0  0
  2  7  1  0  0  0  0
  1  8  1  0  0  0  0
  8  9  1  0  0  0  0
  9 10  2  0  0  0  0
 10 11  1  0  0  0  0
 11 12  1  0  0  0  0
  8 12  2  0  0  0  0
M  END
>  <Catalog ID>
Z104472086

>  <PlateID>
1198308-R-SPFL-05

>  <Well>
F06

>  <MW (desalted)>
182.286

>  <ClogP>
1.521

>  <HBD>
1

>  <TPSA>
15.270

>  <RotBonds>
2

$$$$

            

 10 10  0  0  0  0            999 V2000
    0.1421    2.6007    0.0000 C   0  0  0  0  0  0  0  0  0  0  0  0
    0.8566    2.1882    0.0000 C   0  0  0  0  0  0  0  0  0  0  0  0
    1.5710    2.6007    0.0000 C   0  0  0  0  0  0  0  0  0  0  0  0
    0.8566    1.3632    0.0000 C   0  0  0  0  0  0  0  0  0  0  0  0
    1.5999    1.0053    0.0000 C   0  0  0  0  0  0  0  0  0  0  0  0
    1.7834    0.2009    0.0000 N   0  0  0  0  0  0  0  0  0  0  0  0
    1.2691   -0.4441    0.0000 C   0  0  0  0  0  0  0  0  0  0  0  0
    0.4441   -0.4441    0.0000 C   0  0  0  0  0  0  0  0  0  0  0  0
   -0.0703    0.2009    0.0000 C   0  0  0  0  0  0  0  0  0  0  0  0
    0.1133    1.0053    0.0000 O   0  0  0  0  0  0  0  0  0  0  0  0
  1  2  1  0  0  0  0
  2  3  1  0  0  0  0
  2  4  1  0  0  0  0
  4  5  1  0  0  0  0
  5  6  1  0  0  0  0
  6  7  1  0  0  0  0
  7  8  1  0  0  0  0
  8  9  1  0  0  0  0
  9 10  1  0  0  0  0
  4 10  1  0  0  0  0
M  END
>  <Catalog ID>
Z2217052350

>  <PlateID>
1198308-R-SPFL-05

>  <Well>
F07

>  <MW (desalted)>
143.227

>  <ClogP>
1.070

>  <HBD>
1

>  <TPSA>
21.260

>  <RotBonds>
1

$$$$

            

 15 17  0  0  0  0            999 V2000
    0.3739   -3.7192    0.0000 C   0  0  0  0  0  0  0  0  0  0  0  0
   -0.1781   -3.1062    0.0000 C   0  0  0  0  0  0  0  0  0  0  0  0
    0.0768   -2.3215    0.0000 C   0  0  0  0  0  0  0  0  0  0  0  0
    0.8838   -2.1500    0.0000 C   0  0  0  0  0  0  0  0  0  0  0  0
    1.4358   -2.7631    0.0000 N   0  0  0  0  0  0  0  0  0  0  0  0
    1.1809   -3.5477    0.0000 C   0  0  0  0  0  0  0  0  0  0  0  0
    1.1387   -1.3654    0.0000 C   0  0  0  0  0  0  0  0  0  0  0  0
    0.6538   -0.6979    0.0000 N   0  0  0  0  0  0  0  0  0  0  0  0
    1.1387   -0.0305    0.0000 N   0  0  0  0  0  0  0  0  0  0  0  0
    1.9233   -0.2854    0.0000 C   0  0  0  0  0  0  0  0  0  0  0  0
    2.6378    0.1271    0.0000 C   0  0  0  0  0  0  0  0  0  0  0  0
    3.3523   -0.2854    0.0000 C   0  0  0  0  0  0  0  0  0  0  0  0
    3.3523   -1.1104    0.0000 C   0  0  0  0  0  0  0  0  0  0  0  0
    2.6378   -1.5229    0.0000 C   0  0  0  0  0  0  0  0  0  0  0  0
    1.9233   -1.1104    0.0000 N   0  0  0  0  0  0  0  0  0  0  0  0
  1  2  1  0  0  0  0
  2  3  1  0  0  0  0
  3  4  1  0  0  0  0
  4  5  1  0  0  0  0
  5  6  1  0  0  0  0
  1  6  1  0  0  0  0
  4  7  1  0  0  0  0
  7  8  2  0  0  0  0
  8  9  1  0  0  0  0
  9 10  2  0  0  0  0
 10 11  1  0  0  0  0
 11 12  1  0  0  0  0
 12 13  1  0  0  0  0
 13 14  1  0  0  0  0
 14 15  1  0  0  0  0
  7 15  1  0  0  0  0
 10 15  1  0  0  0  0
M  END
>  <Catalog ID>
Z989047206

>  <PlateID>
1198308-R-SPFL-05

>  <Well>
F08

>  <MW (desalted)>
206.287

>  <ClogP>
0.113

>  <HBD>
1

>  <TPSA>
42.740

>  <RotBonds>
1

$$$$

            

 12 12  0  0  0  0            999 V2000
    0.5678    1.9393    0.0000 C   0  0  0  0  0  0  0  0  0  0  0  0
    0.5678    1.1143    0.0000 C   0  0  0  0  0  0  0  0  0  0  0  0
    1.2352    0.6294    0.0000 N   0  0  0  0  0  0  0  0  0  0  0  0
    0.9803   -0.1553    0.0000 O   0  0  0  0  0  0  0  0  0  0  0  0
    0.1553   -0.1553    0.0000 C   0  0  0  0  0  0  0  0  0  0  0  0
   -0.3297   -0.8227    0.0000 C   0  0  0  0  0  0  0  0  0  0  0  0
    0.0059   -1.5764    0.0000 F   0  0  0  0  0  0  0  0  0  0  0  0
   -1.1501   -0.7365    0.0000 F   0  0  0  0  0  0  0  0  0  0  0  0
   -0.0997    0.6294    0.0000 C   0  0  0  0  0  0  0  0  0  0  0  0
   -0.8843    0.8843    0.0000 C   0  0  0  0  0  0  0  0  0  0  0  0
   -1.0558    1.6913    0.0000 O   0  0  0  0  0  0  0  0  0  0  0  0
   -1.4974    0.3323    0.0000 O   0  0  0  0  0  0  0  0  0  0  0  0
  1  2  1  0  0  0  0
  2  3  2  0  0  0  0
  3  4  1  0  0  0  0
  4  5  1  0  0  0  0
  5  6  1  0  0  0  0
  6  7  1  0  0  0  0
  6  8  1  0  0  0  0
  5  9  2  0  0  0  0
  2  9  1  0  0  0  0
  9 10  1  0  0  0  0
 10 11  2  0  0  0  0
 10 12  1  0  0  0  0
M  END
>  <Catalog ID>
Z1198234668

>  <PlateID>
1198308-R-SPFL-05

>  <Well>
F09

>  <MW (desalted)>
177.106

>  <ClogP>
0.211

>  <HBD>
1

>  <TPSA>
63.330

>  <RotBonds>
2

$$$$

            

 10 11  0  0  0  0            999 V2000
   -0.1712   -0.6979    0.0000 C   0  0  0  0  0  0  0  0  0  0  0  0
    0.6538   -0.6979    0.0000 C   0  0  0  0  0  0  0  0  0  0  0  0
    1.1387   -0.0305    0.0000 N   0  0  0  0  0  0  0  0  0  0  0  0
    1.9233   -0.2854    0.0000 C   0  0  0  0  0  0  0  0  0  0  0  0
    2.6378    0.1271    0.0000 C   0  0  0  0  0  0  0  0  0  0  0  0
    3.3523   -0.2854    0.0000 N   0  0  0  0  0  0  0  0  0  0  0  0
    3.3523   -1.1104    0.0000 C   0  0  0  0  0  0  0  0  0  0  0  0
    2.6378   -1.5229    0.0000 C   0  0  0  0  0  0  0  0  0  0  0  0
    1.9233   -1.1104    0.0000 C   0  0  0  0  0  0  0  0  0  0  0  0
    1.1387   -1.3654    0.0000 S   0  0  0  0  0  0  0  0  0  0  0  0
  1  2  1  0  0  0  0
  2  3  2  0  0  0  0
  3  4  1  0  0  0  0
  4  5  2  0  0  0  0
  5  6  1  0  0  0  0
  6  7  2  0  0  0  0
  7  8  1  0  0  0  0
  8  9  2  0  0  0  0
  4  9  1  0  0  0  0
  9 10  1  0  0  0  0
  2 10  1  0  0  0  0
M  END
>  <Catalog ID>
Z1255375955

>  <PlateID>
1198308-R-SPFL-05

>  <Well>
F10

>  <MW (desalted)>
150.201

>  <ClogP>
1.499

>  <HBD>
0

>  <TPSA>
25.780

>  <RotBonds>
0

$$$$

            

 14 15  0  0  0  0            999 V2000
    1.4289   -0.0000    0.0000 N   0  0  0  0  0  0  0  0  0  0  0  0
    0.7145   -0.4125    0.0000 C   0  0  0  0  0  0  0  0  0  0  0  0
    0.7145   -1.2375    0.0000 C   0  0  0  0  0  0  0  0  0  0  0  0
    1.4289   -1.6500    0.0000 C   0  0  0  0  0  0  0  0  0  0  0  0
    1.4289   -2.4750    0.0000 C   0  0  0  0  0  0  0  0  0  0  0  0
    0.7145   -2.8875    0.0000 C   0  0  0  0  0  0  0  0  0  0  0  0
    0.0000   -2.4750    0.0000 C   0  0  0  0  0  0  0  0  0  0  0  0
    0.0000   -1.6500    0.0000 C   0  0  0  0  0  0  0  0  0  0  0  0
   -0.7145   -1.2375    0.0000 C   0  0  0  0  0  0  0  0  0  0  0  0
   -1.4289   -1.6500    0.0000 C   0  0  0  0  0  0  0  0  0  0  0  0
   -2.1434   -1.2375    0.0000 C   0  0  0  0  0  0  0  0  0  0  0  0
   -2.1434   -0.4125    0.0000 N   0  0  0  0  0  0  0  0  0  0  0  0
   -1.4289    0.0000    0.0000 C   0  0  0  0  0  0  0  0  0  0  0  0
   -0.7145   -0.4125    0.0000 C   0  0  0  0  0  0  0  0  0  0  0  0
  1  2  1  0  0  0  0
  2  3  1  0  0  0  0
  3  4  2  0  0  0  0
  4  5  1  0  0  0  0
  5  6  2  0  0  0  0
  6  7  1  0  0  0  0
  7  8  2  0  0  0  0
  3  8  1  0  0  0  0
  8  9  1  0  0  0  0
  9 10  2  0  0  0  0
 10 11  1  0  0  0  0
 11 12  2  0  0  0  0
 12 13  1  0  0  0  0
 13 14  2  0  0  0  0
  9 14  1  0  0  0  0
M  END
>  <Catalog ID>
Z756099188

>  <PlateID>
1198308-R-SPFL-05

>  <Well>
F11

>  <MW (desalted)>
184.237

>  <ClogP>
1.185

>  <HBD>
1

>  <TPSA>
38.910

>  <RotBonds>
2

$$$$

            

 13 13  0  0  0  0            999 V2000
    1.4289    2.4750    0.0000 O   0  0  0  0  0  0  0  0  0  0  0  0
    0.7145    2.0625    0.0000 C   0  0  0  0  0  0  0  0  0  0  0  0
    0.0000    2.4750    0.0000 O   0  0  0  0  0  0  0  0  0  0  0  0
    0.7145    1.2375    0.0000 C   0  0  0  0  0  0  0  0  0  0  0  0
    1.4289    0.8250    0.0000 C   0  0  0  0  0  0  0  0  0  0  0  0
    1.4289   -0.0000    0.0000 C   0  0  0  0  0  0  0  0  0  0  0  0
    0.7145   -0.4125    0.0000 N   0  0  0  0  0  0  0  0  0  0  0  0
    0.0000    0.0000    0.0000 C   0  0  0  0  0  0  0  0  0  0  0  0
    0.0000    0.8250    0.0000 C   0  0  0  0  0  0  0  0  0  0  0  0
   -0.7145   -0.4125    0.0000 C   0  0  0  0  0  0  0  0  0  0  0  0
   -1.4289   -0.8250    0.0000 F   0  0  0  0  0  0  0  0  0  0  0  0
   -1.1270    0.3020    0.0000 F   0  0  0  0  0  0  0  0  0  0  0  0
   -0.3020   -1.1270    0.0000 F   0  0  0  0  0  0  0  0  0  0  0  0
  1  2  1  0  0  0  0
  2  3  2  0  0  0  0
  2  4  1  0  0  0  0
  4  5  2  0  0  0  0
  5  6  1  0  0  0  0
  6  7  2  0  0  0  0
  7  8  1  0  0  0  0
  8  9  2  0  0  0  0
  4  9  1  0  0  0  0
  8 10  1  0  0  0  0
 10 11  1  0  0  0  0
 10 12  1  0  0  0  0
 10 13  1  0  0  0  0
M  END
>  <Catalog ID>
Z1198173818

>  <PlateID>
1198308-R-SPFL-05

>  <Well>
G02

>  <MW (desalted)>
191.107

>  <ClogP>
1.724

>  <HBD>
1

>  <TPSA>
50.190

>  <RotBonds>
2

$$$$

            

 12 13  0  0  0  0            999 V2000
    2.0367   -0.4741    0.0000 C   0  0  0  0  0  0  0  0  0  0  0  0
    2.0367   -1.2991    0.0000 C   0  0  0  0  0  0  0  0  0  0  0  0
    2.7041   -1.7840    0.0000 N   0  0  0  0  0  0  0  0  0  0  0  0
    2.4492   -2.5687    0.0000 N   0  0  0  0  0  0  0  0  0  0  0  0
    1.6242   -2.5687    0.0000 C   0  0  0  0  0  0  0  0  0  0  0  0
    1.3693   -1.7840    0.0000 N   0  0  0  0  0  0  0  0  0  0  0  0
    2.7512   -0.0616    0.0000 C   0  0  0  0  0  0  0  0  0  0  0  0
    2.7512    0.7634    0.0000 C   0  0  0  0  0  0  0  0  0  0  0  0
    3.4656    1.1759    0.0000 C   0  0  0  0  0  0  0  0  0  0  0  0
    4.1801    0.7634    0.0000 C   0  0  0  0  0  0  0  0  0  0  0  0
    4.1801   -0.0616    0.0000 C   0  0  0  0  0  0  0  0  0  0  0  0
    3.4656   -0.4741    0.0000 C   0  0  0  0  0  0  0  0  0  0  0  0
  1  2  1  0  0  0  0
  2  3  2  0  0  0  0
  3  4  1  0  0  0  0
  4  5  2  0  0  0  0
  5  6  1  0  0  0  0
  2  6  1  0  0  0  0
  1  7  1  0  0  0  0
  7  8  2  0  0  0  0
  8  9  1  0  0  0  0
  9 10  2  0  0  0  0
 10 11  1  0  0  0  0
 11 12  2  0  0  0  0
  7 12  1  0  0  0  0
M  END
>  <Catalog ID>
Z1262564339

>  <PlateID>
1198308-R-SPFL-05

>  <Well>
G03

>  <MW (desalted)>
159.188

>  <ClogP>
1.171

>  <HBD>
1

>  <TPSA>
41.570

>  <RotBonds>
2

$$$$

            

 16 16  0  0  0  0            999 V2000
    0.0000    0.0000    0.0000 Cl  0  0  0  0  0  0  0  0  0  0  0  0
    2.3571    0.4539    0.0000 N   0  0  0  0  0  0  0  0  0  0  0  0
    3.0716    0.0414    0.0000 C   0  0  0  0  0  0  0  0  0  0  0  0
    3.0716   -0.7836    0.0000 C   0  0  0  0  0  0  0  0  0  0  0  0
    3.7391   -1.2685    0.0000 N   0  0  0  0  0  0  0  0  0  0  0  0
    3.4841   -2.0531    0.0000 C   0  0  0  0  0  0  0  0  0  0  0  0
    2.6591   -2.0531    0.0000 O   0  0  0  0  0  0  0  0  0  0  0  0
    2.4042   -1.2685    0.0000 N   0  0  0  0  0  0  0  0  0  0  0  0
    3.7861    0.4539    0.0000 C   0  0  0  0  0  0  0  0  0  0  0  0
    3.7861    1.2789    0.0000 C   0  0  0  0  0  0  0  0  0  0  0  0
    4.5006    1.6914    0.0000 C   0  0  0  0  0  0  0  0  0  0  0  0
    5.2150    1.2789    0.0000 C   0  0  0  0  0  0  0  0  0  0  0  0
    5.9295    1.6914    0.0000 F   0  0  0  0  0  0  0  0  0  0  0  0
    5.2150    0.4539    0.0000 C   0  0  0  0  0  0  0  0  0  0  0  0
    5.9295    0.0414    0.0000 F   0  0  0  0  0  0  0  0  0  0  0  0
    4.5006    0.0414    0.0000 C   0  0  0  0  0  0  0  0  0  0  0  0
  2  3  1  0  0  0  0
  3  4  1  0  0  0  0
  4  5  1  0  0  0  0
  5  6  2  0  0  0  0
  6  7  1  0  0  0  0
  7  8  1  0  0  0  0
  4  8  2  0  0  0  0
  3  9  1  0  0  0  0
  9 10  2  0  0  0  0
 10 11  1  0  0  0  0
 11 12  2  0  0  0  0
 12 13  1  0  0  0  0
 12 14  1  0  0  0  0
 14 15  1  0  0  0  0
 14 16  2  0  0  0  0
  9 16  1  0  0  0  0
M  END
>  <Catalog ID>
Z1695906800

>  <PlateID>
1198308-R-SPFL-05

>  <Well>
G04

>  <MW (desalted)>
211.168

>  <ClogP>
0.010

>  <HBD>
1

>  <TPSA>
64.940

>  <RotBonds>
2

$$$$

            

 11 11  0  0  0  0            999 V2000
    0.7145    2.0625    0.0000 C   0  0  0  0  0  0  0  0  0  0  0  0
    0.7145    1.2375    0.0000 C   0  0  0  0  0  0  0  0  0  0  0  0
    1.4289    0.8250    0.0000 C   0  0  0  0  0  0  0  0  0  0  0  0
    1.4289   -0.0000    0.0000 C   0  0  0  0  0  0  0  0  0  0  0  0
    0.7145   -0.4125    0.0000 C   0  0  0  0  0  0  0  0  0  0  0  0
    0.0000    0.0000    0.0000 C   0  0  0  0  0  0  0  0  0  0  0  0
   -0.7145   -0.4125    0.0000 C   0  0  0  0  0  0  0  0  0  0  0  0
   -0.7145   -1.2375    0.0000 C   0  0  0  0  0  0  0  0  0  0  0  0
   -1.4289   -1.6500    0.0000 C   0  0  0  0  0  0  0  0  0  0  0  0
   -1.4289   -2.4750    0.0000 O   0  0  0  0  0  0  0  0  0  0  0  0
    0.0000    0.8250    0.0000 N   0  0  0  0  0  0  0  0  0  0  0  0
  1  2  1  0  0  0  0
  2  3  2  0  0  0  0
  3  4  1  0  0  0  0
  4  5  2  0  0  0  0
  5  6  1  0  0  0  0
  6  7  1  0  0  0  0
  7  8  1  0  0  0  0
  8  9  1  0  0  0  0
  9 10  1  0  0  0  0
  6 11  2  0  0  0  0
  2 11  1  0  0  0  0
M  END
>  <Catalog ID>
Z104479712

>  <PlateID>
1198308-R-SPFL-05

>  <Well>
G05

>  <MW (desalted)>
151.206

>  <ClogP>
0.714

>  <HBD>
1

>  <TPSA>
33.120

>  <RotBonds>
3

$$$$

            

 11 11  0  0  0  0            999 V2000
    0.0000    0.0000    0.0000 Cl  0  0  0  0  0  0  0  0  0  0  0  0
    5.2987    0.7425    0.0000 F   0  0  0  0  0  0  0  0  0  0  0  0
    4.5842    0.3300    0.0000 C   0  0  0  0  0  0  0  0  0  0  0  0
    4.5842   -0.4950    0.0000 C   0  0  0  0  0  0  0  0  0  0  0  0
    3.8697   -0.9075    0.0000 C   0  0  0  0  0  0  0  0  0  0  0  0
    3.1553   -0.4950    0.0000 C   0  0  0  0  0  0  0  0  0  0  0  0
    2.3706   -0.7499    0.0000 C   0  0  0  0  0  0  0  0  0  0  0  0
    1.8857   -0.0825    0.0000 N   0  0  0  0  0  0  0  0  0  0  0  0
    2.3706    0.5849    0.0000 C   0  0  0  0  0  0  0  0  0  0  0  0
    3.1553    0.3300    0.0000 C   0  0  0  0  0  0  0  0  0  0  0  0
    3.8697    0.7425    0.0000 C   0  0  0  0  0  0  0  0  0  0  0  0
  2  3  1  0  0  0  0
  3  4  2  0  0  0  0
  4  5  1  0  0  0  0
  5  6  2  0  0  0  0
  6  7  1  0  0  0  0
  7  8  1  0  0  0  0
  8  9  1  0  0  0  0
  9 10  1  0  0  0  0
  6 10  1  0  0  0  0
 10 11  2  0  0  0  0
  3 11  1  0  0  0  0
M  END
>  <Catalog ID>
Z1741969200

>  <PlateID>
1198308-R-SPFL-05

>  <Well>
G06

>  <MW (desalted)>
137.154

>  <ClogP>
1.179

>  <HBD>
1

>  <TPSA>
12.030

>  <RotBonds>
0

$$$$

            

 13 14  0  0  0  0            999 V2000
    4.7812    2.7604    0.0000 N   0  0  0  0  0  0  0  0  0  0  0  0
    4.0668    2.3479    0.0000 S   0  0  0  0  0  0  0  0  0  0  0  0
    3.6543    3.0624    0.0000 O   0  0  0  0  0  0  0  0  0  0  0  0
    4.4793    1.6335    0.0000 O   0  0  0  0  0  0  0  0  0  0  0  0
    3.3523    1.9354    0.0000 C   0  0  0  0  0  0  0  0  0  0  0  0
    3.3523    1.1104    0.0000 C   0  0  0  0  0  0  0  0  0  0  0  0
    2.6378    0.6979    0.0000 N   0  0  0  0  0  0  0  0  0  0  0  0
    1.9233    1.1104    0.0000 C   0  0  0  0  0  0  0  0  0  0  0  0
    1.1387    0.8555    0.0000 C   0  0  0  0  0  0  0  0  0  0  0  0
    0.6538    1.5229    0.0000 C   0  0  0  0  0  0  0  0  0  0  0  0
    1.1387    2.1904    0.0000 C   0  0  0  0  0  0  0  0  0  0  0  0
    1.9233    1.9354    0.0000 C   0  0  0  0  0  0  0  0  0  0  0  0
    2.6378    2.3479    0.0000 C   0  0  0  0  0  0  0  0  0  0  0  0
  1  2  1  0  0  0  0
  2  3  2  0  0  0  0
  2  4  2  0  0  0  0
  2  5  1  0  0  0  0
  5  6  2  0  0  0  0
  6  7  1  0  0  0  0
  7  8  2  0  0  0  0
  8  9  1  0  0  0  0
  9 10  1  0  0  0  0
 10 11  1  0  0  0  0
 11 12  1  0  0  0  0
  8 12  1  0  0  0  0
 12 13  2  0  0  0  0
  5 13  1  0  0  0  0
M  END
>  <Catalog ID>
Z1601535191

>  <PlateID>
1198308-R-SPFL-05

>  <Well>
G07

>  <MW (desalted)>
198.242

>  <ClogP>
0.718

>  <HBD>
1

>  <TPSA>
73.050

>  <RotBonds>
1

$$$$

            

 17 17  0  0  0  0            999 V2000
    0.0000    0.0000    0.0000 Cl  0  0  0  0  0  0  0  0  0  0  0  0
    2.5413    1.9814    0.0000 N   0  0  0  0  0  0  0  0  0  0  0  0
    3.0716    1.3494    0.0000 C   0  0  0  0  0  0  0  0  0  0  0  0
    3.7861    0.9369    0.0000 C   0  0  0  0  0  0  0  0  0  0  0  0
    3.7861    0.1119    0.0000 C   0  0  0  0  0  0  0  0  0  0  0  0
    3.0716   -0.3006    0.0000 C   0  0  0  0  0  0  0  0  0  0  0  0
    2.3571    0.1119    0.0000 C   0  0  0  0  0  0  0  0  0  0  0  0
    2.3571    0.9369    0.0000 C   0  0  0  0  0  0  0  0  0  0  0  0
    3.0716   -1.1256    0.0000 C   0  0  0  0  0  0  0  0  0  0  0  0
    3.7861   -1.5381    0.0000 C   0  0  0  0  0  0  0  0  0  0  0  0
    3.7861   -2.3631    0.0000 C   0  0  0  0  0  0  0  0  0  0  0  0
    3.0716   -2.7756    0.0000 C   0  0  0  0  0  0  0  0  0  0  0  0
    2.3571   -2.3631    0.0000 C   0  0  0  0  0  0  0  0  0  0  0  0
    2.3571   -1.5381    0.0000 C   0  0  0  0  0  0  0  0  0  0  0  0
    3.6019    1.9814    0.0000 C   0  0  0  0  0  0  0  0  0  0  0  0
    3.3197    2.7566    0.0000 O   0  0  0  0  0  0  0  0  0  0  0  0
    4.4144    1.8381    0.0000 O   0  0  0  0  0  0  0  0  0  0  0  0
  2  3  1  0  0  0  0
  3  4  1  0  0  0  0
  4  5  1  0  0  0  0
  5  6  1  0  0  0  0
  6  7  1  0  0  0  0
  7  8  1  0  0  0  0
  3  8  1  0  0  0  0
  6  9  1  0  0  0  0
  9 10  2  0  0  0  0
 10 11  1  0  0  0  0
 11 12  2  0  0  0  0
 12 13  1  0  0  0  0
 13 14  2  0  0  0  0
  9 14  1  0  0  0  0
  3 15  1  0  0  0  0
 15 16  2  0  0  0  0
 15 17  1  0  0  0  0
M  END
>  <Catalog ID>
Z234898119

>  <PlateID>
1198308-R-SPFL-05

>  <Well>
G08

>  <MW (desalted)>
219.280

>  <ClogP>
-0.287

>  <HBD>
2

>  <TPSA>
63.320

>  <RotBonds>
2

$$$$

            

 12 12  0  0  0  0            999 V2000
    0.5678    1.9393    0.0000 C   0  0  0  0  0  0  0  0  0  0  0  0
    0.5678    1.1143    0.0000 C   0  0  0  0  0  0  0  0  0  0  0  0
    1.2352    0.6294    0.0000 N   0  0  0  0  0  0  0  0  0  0  0  0
    0.9803   -0.1553    0.0000 O   0  0  0  0  0  0  0  0  0  0  0  0
    0.1553   -0.1553    0.0000 C   0  0  0  0  0  0  0  0  0  0  0  0
   -0.3297   -0.8227    0.0000 Cl  0  0  0  0  0  0  0  0  0  0  0  0
   -0.0997    0.6294    0.0000 C   0  0  0  0  0  0  0  0  0  0  0  0
   -0.8843    0.8843    0.0000 C   0  0  0  0  0  0  0  0  0  0  0  0
   -1.4974    0.3323    0.0000 C   0  0  0  0  0  0  0  0  0  0  0  0
   -2.2820    0.5872    0.0000 C   0  0  0  0  0  0  0  0  0  0  0  0
   -2.8951    0.0352    0.0000 O   0  0  0  0  0  0  0  0  0  0  0  0
   -2.4535    1.3942    0.0000 O   0  0  0  0  0  0  0  0  0  0  0  0
  1  2  1  0  0  0  0
  2  3  2  0  0  0  0
  3  4  1  0  0  0  0
  4  5  1  0  0  0  0
  5  6  1  0  0  0  0
  5  7  2  0  0  0  0
  2  7  1  0  0  0  0
  7  8  1  0  0  0  0
  8  9  1  0  0  0  0
  9 10  1  0  0  0  0
 10 11  2  0  0  0  0
 10 12  1  0  0  0  0
M  END
>  <Catalog ID>
Z808723932

>  <PlateID>
1198308-R-SPFL-05

>  <Well>
G09

>  <MW (desalted)>
189.596

>  <ClogP>
0.739

>  <HBD>
1

>  <TPSA>
63.330

>  <RotBonds>
3

$$$$

            

 14 14  0  0  0  0            999 V2000
    0.0000    0.0000    0.0000 Cl  0  0  0  0  0  0  0  0  0  0  0  0
    2.3571   -1.0263    0.0000 N   0  0  0  0  0  0  0  0  0  0  0  0
    3.0716   -0.6138    0.0000 C   0  0  0  0  0  0  0  0  0  0  0  0
    3.0716    0.2112    0.0000 C   0  0  0  0  0  0  0  0  0  0  0  0
    2.3571    0.6237    0.0000 C   0  0  0  0  0  0  0  0  0  0  0  0
    2.3571    1.4487    0.0000 C   0  0  0  0  0  0  0  0  0  0  0  0
    3.0716    1.8612    0.0000 C   0  0  0  0  0  0  0  0  0  0  0  0
    3.7861    1.4487    0.0000 C   0  0  0  0  0  0  0  0  0  0  0  0
    3.7861    0.6237    0.0000 C   0  0  0  0  0  0  0  0  0  0  0  0
    4.5006    0.2112    0.0000 O   0  0  0  0  0  0  0  0  0  0  0  0
    4.5006   -0.6138    0.0000 C   0  0  0  0  0  0  0  0  0  0  0  0
    5.0839   -1.1971    0.0000 C   0  0  0  0  0  0  0  0  0  0  0  0
    4.5006   -1.7805    0.0000 C   0  0  0  0  0  0  0  0  0  0  0  0
    3.9172   -1.1971    0.0000 C   0  0  0  0  0  0  0  0  0  0  0  0
  2  3  1  0  0  0  0
  3  4  1  0  0  0  0
  4  5  2  0  0  0  0
  5  6  1  0  0  0  0
  6  7  2  0  0  0  0
  7  8  1  0  0  0  0
  8  9  2  0  0  0  0
  4  9  1  0  0  0  0
  9 10  1  0  0  0  0
 10 11  1  0  0  0  0
 11 12  1  0  0  0  0
 12 13  1  0  0  0  0
 13 14  1  0  0  0  0
 11 14  1  0  0  0  0
M  END
>  <Catalog ID>
Z1702983957

>  <PlateID>
1198308-R-SPFL-05

>  <Well>
G10

>  <MW (desalted)>
177.243

>  <ClogP>
1.926

>  <HBD>
1

>  <TPSA>
35.250

>  <RotBonds>
3

$$$$

            

 11 12  0  0  0  0            999 V2000
    1.4289   -1.6500    0.0000 C   0  0  0  0  0  0  0  0  0  0  0  0
    0.7145   -1.2375    0.0000 O   0  0  0  0  0  0  0  0  0  0  0  0
    0.7145   -0.4125    0.0000 C   0  0  0  0  0  0  0  0  0  0  0  0
    0.0000    0.0000    0.0000 C   0  0  0  0  0  0  0  0  0  0  0  0
    0.0000    0.8250    0.0000 C   0  0  0  0  0  0  0  0  0  0  0  0
    0.7145    1.2375    0.0000 N   0  0  0  0  0  0  0  0  0  0  0  0
    1.4289    0.8250    0.0000 C   0  0  0  0  0  0  0  0  0  0  0  0
    1.4289    0.0000    0.0000 C   0  0  0  0  0  0  0  0  0  0  0  0
    1.4289   -2.4750    0.0000 C   0  0  0  0  0  0  0  0  0  0  0  0
    1.8414   -3.1895    0.0000 C   0  0  0  0  0  0  0  0  0  0  0  0
    1.0164   -3.1895    0.0000 C   0  0  0  0  0  0  0  0  0  0  0  0
  1  2  1  0  0  0  0
  2  3  1  0  0  0  0
  3  4  1  0  0  0  0
  4  5  1  0  0  0  0
  5  6  1  0  0  0  0
  6  7  1  0  0  0  0
  7  8  1  0  0  0  0
  3  8  1  0  0  0  0
  1  9  1  0  0  0  0
  9 10  1  0  0  0  0
 10 11  1  0  0  0  0
  9 11  1  0  0  0  0
M  END
>  <Catalog ID>
Z431959042

>  <PlateID>
1198308-R-SPFL-05

>  <Well>
G11

>  <MW (desalted)>
155.237

>  <ClogP>
0.397

>  <HBD>
1

>  <TPSA>
21.260

>  <RotBonds>
3

$$$$

            

 10 10  0  0  0  0            999 V2000
    0.5678    1.9393    0.0000 C   0  0  0  0  0  0  0  0  0  0  0  0
    0.5678    1.1143    0.0000 C   0  0  0  0  0  0  0  0  0  0  0  0
    1.2352    0.6294    0.0000 N   0  0  0  0  0  0  0  0  0  0  0  0
    0.9803   -0.1553    0.0000 S   0  0  0  0  0  0  0  0  0  0  0  0
    0.1553   -0.1553    0.0000 C   0  0  0  0  0  0  0  0  0  0  0  0
   -0.3297   -0.8227    0.0000 C   0  0  0  0  0  0  0  0  0  0  0  0
   -0.0997    0.6294    0.0000 C   0  0  0  0  0  0  0  0  0  0  0  0
   -0.8843    0.8843    0.0000 C   0  0  0  0  0  0  0  0  0  0  0  0
   -1.0558    1.6913    0.0000 O   0  0  0  0  0  0  0  0  0  0  0  0
   -1.4974    0.3323    0.0000 O   0  0  0  0  0  0  0  0  0  0  0  0
  1  2  1  0  0  0  0
  2  3  2  0  0  0  0
  3  4  1  0  0  0  0
  4  5  1  0  0  0  0
  5  6  1  0  0  0  0
  5  7  2  0  0  0  0
  2  7  1  0  0  0  0
  7  8  1  0  0  0  0
  8  9  2  0  0  0  0
  8 10  1  0  0  0  0
M  END
>  <Catalog ID>
Z1262512766

>  <PlateID>
1198308-R-SPFL-05

>  <Well>
H02

>  <MW (desalted)>
157.190

>  <ClogP>
1.254

>  <HBD>
1

>  <TPSA>
50.190

>  <RotBonds>
1

$$$$

            

 13 12  0  0  0  0            999 V2000
    0.0000    0.0000    0.0000 Cl  0  0  0  0  0  0  0  0  0  0  0  0
    4.0218    0.4987    0.0000 N   0  0  0  0  0  0  0  0  0  0  0  0
    3.3073    0.0862    0.0000 C   0  0  0  0  0  0  0  0  0  0  0  0
    2.5929    0.4987    0.0000 C   0  0  0  0  0  0  0  0  0  0  0  0
    2.5929    1.3237    0.0000 C   0  0  0  0  0  0  0  0  0  0  0  0
    2.5929    2.1487    0.0000 F   0  0  0  0  0  0  0  0  0  0  0  0
    1.7679    1.3237    0.0000 F   0  0  0  0  0  0  0  0  0  0  0  0
    3.4179    1.3237    0.0000 F   0  0  0  0  0  0  0  0  0  0  0  0
    3.3073   -0.7388    0.0000 C   0  0  0  0  0  0  0  0  0  0  0  0
    3.9748   -1.2238    0.0000 C   0  0  0  0  0  0  0  0  0  0  0  0
    3.7198   -2.0084    0.0000 C   0  0  0  0  0  0  0  0  0  0  0  0
    2.8948   -2.0084    0.0000 S   0  0  0  0  0  0  0  0  0  0  0  0
    2.6399   -1.2238    0.0000 C   0  0  0  0  0  0  0  0  0  0  0  0
  2  3  1  0  0  0  0
  3  4  1  0  0  0  0
  4  5  1  0  0  0  0
  5  6  1  0  0  0  0
  5  7  1  0  0  0  0
  5  8  1  0  0  0  0
  3  9  1  0  0  0  0
  9 10  1  0  0  0  0
 10 11  2  0  0  0  0
 11 12  1  0  0  0  0
 12 13  1  0  0  0  0
  9 13  2  0  0  0  0
M  END
>  <Catalog ID>
Z2227499441

>  <PlateID>
1198308-R-SPFL-05

>  <Well>
H03

>  <MW (desalted)>
195.205

>  <ClogP>
1.292

>  <HBD>
1

>  <TPSA>
26.020

>  <RotBonds>
3

$$$$

            

 10 10  0  0  0  0            999 V2000
    0.1842    1.8695    0.0000 C   0  0  0  0  0  0  0  0  0  0  0  0
    0.7145    1.2375    0.0000 C   0  0  0  0  0  0  0  0  0  0  0  0
    1.4289    0.8250    0.0000 C   0  0  0  0  0  0  0  0  0  0  0  0
    1.4289   -0.0000    0.0000 C   0  0  0  0  0  0  0  0  0  0  0  0
    0.7145   -0.4125    0.0000 C   0  0  0  0  0  0  0  0  0  0  0  0
    0.0000    0.0000    0.0000 C   0  0  0  0  0  0  0  0  0  0  0  0
    0.0000    0.8250    0.0000 O   0  0  0  0  0  0  0  0  0  0  0  0
    1.2448    1.8695    0.0000 C   0  0  0  0  0  0  0  0  0  0  0  0
    0.9626    2.6447    0.0000 O   0  0  0  0  0  0  0  0  0  0  0  0
    2.0572    1.7262    0.0000 O   0  0  0  0  0  0  0  0  0  0  0  0
  1  2  1  0  0  0  0
  2  3  1  0  0  0  0
  3  4  1  0  0  0  0
  4  5  1  0  0  0  0
  5  6  1  0  0  0  0
  6  7  1  0  0  0  0
  2  7  1  0  0  0  0
  2  8  1  0  0  0  0
  8  9  2  0  0  0  0
  8 10  1  0  0  0  0
M  END
>  <Catalog ID>
Z1198235237

>  <PlateID>
1198308-R-SPFL-05

>  <Well>
H04

>  <MW (desalted)>
144.168

>  <ClogP>
1.000

>  <HBD>
1

>  <TPSA>
46.530

>  <RotBonds>
1

$$$$

            

 14 14  0  0  0  0            999 V2000
    0.0000    0.0000    0.0000 Cl  0  0  0  0  0  0  0  0  0  0  0  0
    3.0716    0.3808    0.0000 C   0  0  0  0  0  0  0  0  0  0  0  0
    3.0716   -0.4442    0.0000 C   0  0  0  0  0  0  0  0  0  0  0  0
    3.7861   -0.8567    0.0000 C   0  0  0  0  0  0  0  0  0  0  0  0
    3.7861   -1.6817    0.0000 O   0  0  0  0  0  0  0  0  0  0  0  0
    3.0716   -2.0942    0.0000 C   0  0  0  0  0  0  0  0  0  0  0  0
    2.3571   -1.6817    0.0000 C   0  0  0  0  0  0  0  0  0  0  0  0
    2.3571   -0.8567    0.0000 N   0  0  0  0  0  0  0  0  0  0  0  0
    3.7861    0.7933    0.0000 C   0  0  0  0  0  0  0  0  0  0  0  0
    3.7861    1.6183    0.0000 C   0  0  0  0  0  0  0  0  0  0  0  0
    4.5006    2.0308    0.0000 C   0  0  0  0  0  0  0  0  0  0  0  0
    5.2150    1.6183    0.0000 C   0  0  0  0  0  0  0  0  0  0  0  0
    5.2150    0.7933    0.0000 C   0  0  0  0  0  0  0  0  0  0  0  0
    4.5006    0.3808    0.0000 C   0  0  0  0  0  0  0  0  0  0  0  0
  2  3  1  0  0  0  0
  3  4  1  0  0  0  0
  4  5  1  0  0  0  0
  5  6  1  0  0  0  0
  6  7  1  0  0  0  0
  7  8  1  0  0  0  0
  3  8  1  0  0  0  0
  2  9  1  0  0  0  0
  9 10  2  0  0  0  0
 10 11  1  0  0  0  0
 11 12  2  0  0  0  0
 12 13  1  0  0  0  0
 13 14  2  0  0  0  0
  9 14  1  0  0  0  0
M  END
>  <Catalog ID>
Z1346385428

>  <PlateID>
1198308-R-SPFL-05

>  <Well>
H05

>  <MW (desalted)>
177.243

>  <ClogP>
1.679

>  <HBD>
1

>  <TPSA>
21.260

>  <RotBonds>
2

$$$$

            

 12 11  0  0  0  0            999 V2000
    0.0000    0.0000    0.0000 Cl  0  0  0  0  0  0  0  0  0  0  0  0
    2.5413    0.7373    0.0000 N   0  0  0  0  0  0  0  0  0  0  0  0
    3.0716    0.1053    0.0000 C   0  0  0  0  0  0  0  0  0  0  0  0
    3.7861   -0.3072    0.0000 C   0  0  0  0  0  0  0  0  0  0  0  0
    3.7861   -1.1322    0.0000 C   0  0  0  0  0  0  0  0  0  0  0  0
    3.0716   -1.5447    0.0000 O   0  0  0  0  0  0  0  0  0  0  0  0
    2.3571   -1.1322    0.0000 C   0  0  0  0  0  0  0  0  0  0  0  0
    2.3571   -0.3072    0.0000 C   0  0  0  0  0  0  0  0  0  0  0  0
    3.6019    0.7373    0.0000 C   0  0  0  0  0  0  0  0  0  0  0  0
    4.1322    1.3693    0.0000 F   0  0  0  0  0  0  0  0  0  0  0  0
    4.2339    0.2070    0.0000 F   0  0  0  0  0  0  0  0  0  0  0  0
    2.9699    1.2676    0.0000 F   0  0  0  0  0  0  0  0  0  0  0  0
  2  3  1  0  0  0  0
  3  4  1  0  0  0  0
  4  5  1  0  0  0  0
  5  6  1  0  0  0  0
  6  7  1  0  0  0  0
  7  8  1  0  0  0  0
  3  8  1  0  0  0  0
  3  9  1  0  0  0  0
  9 10  1  0  0  0  0
  9 11  1  0  0  0  0
  9 12  1  0  0  0  0
M  END
>  <Catalog ID>
Z1268152290

>  <PlateID>
1198308-R-SPFL-05

>  <Well>
H06

>  <MW (desalted)>
169.145

>  <ClogP>
-0.339

>  <HBD>
1

>  <TPSA>
35.250

>  <RotBonds>
1

$$$$

            

 11 12  0  0  0  0            999 V2000
   -0.5837   -1.4124    0.0000 O   0  0  0  0  0  0  0  0  0  0  0  0
   -0.1712   -0.6979    0.0000 C   0  0  0  0  0  0  0  0  0  0  0  0
    0.6538   -0.6979    0.0000 C   0  0  0  0  0  0  0  0  0  0  0  0
    1.1387   -0.0305    0.0000 C   0  0  0  0  0  0  0  0  0  0  0  0
    1.9233   -0.2854    0.0000 C   0  0  0  0  0  0  0  0  0  0  0  0
    2.6378    0.1271    0.0000 C   0  0  0  0  0  0  0  0  0  0  0  0
    3.3523   -0.2854    0.0000 C   0  0  0  0  0  0  0  0  0  0  0  0
    3.3523   -1.1104    0.0000 C   0  0  0  0  0  0  0  0  0  0  0  0
    2.6378   -1.5229    0.0000 C   0  0  0  0  0  0  0  0  0  0  0  0
    1.9233   -1.1104    0.0000 N   0  0  0  0  0  0  0  0  0  0  0  0
    1.1387   -1.3654    0.0000 N   0  0  0  0  0  0  0  0  0  0  0  0
  1  2  1  0  0  0  0
  2  3  1  0  0  0  0
  3  4  1  0  0  0  0
  4  5  2  0  0  0  0
  5  6  1  0  0  0  0
  6  7  1  0  0  0  0
  7  8  1  0  0  0  0
  8  9  1  0  0  0  0
  9 10  1  0  0  0  0
  5 10  1  0  0  0  0
 10 11  1  0  0  0  0
  3 11  2  0  0  0  0
M  END
>  <Catalog ID>
Z1198184815

>  <PlateID>
1198308-R-SPFL-05

>  <Well>
H07

>  <MW (desalted)>
152.194

>  <ClogP>
0.062

>  <HBD>
1

>  <TPSA>
38.050

>  <RotBonds>
1

$$$$

            

 16 17  0  0  0  0            999 V2000
    1.4289    0.0000    0.0000 O   0  0  0  0  0  0  0  0  0  0  0  0
    2.1434   -0.4125    0.0000 C   0  0  0  0  0  0  0  0  0  0  0  0
    2.8579    0.0000    0.0000 O   0  0  0  0  0  0  0  0  0  0  0  0
    2.1434   -1.2375    0.0000 C   0  0  0  0  0  0  0  0  0  0  0  0
    1.4289   -1.6500    0.0000 C   0  0  0  0  0  0  0  0  0  0  0  0
    1.4289   -2.4750    0.0000 C   0  0  0  0  0  0  0  0  0  0  0  0
    2.1434   -2.8875    0.0000 N   0  0  0  0  0  0  0  0  0  0  0  0
    2.8579   -2.4750    0.0000 C   0  0  0  0  0  0  0  0  0  0  0  0
    2.8579   -1.6500    0.0000 C   0  0  0  0  0  0  0  0  0  0  0  0
    3.5724   -1.2375    0.0000 O   0  0  0  0  0  0  0  0  0  0  0  0
    4.2868   -1.6500    0.0000 C   0  0  0  0  0  0  0  0  0  0  0  0
    5.0013   -1.2375    0.0000 C   0  0  0  0  0  0  0  0  0  0  0  0
    5.7158   -1.6500    0.0000 C   0  0  0  0  0  0  0  0  0  0  0  0
    5.7158   -2.4750    0.0000 C   0  0  0  0  0  0  0  0  0  0  0  0
    5.0013   -2.8875    0.0000 C   0  0  0  0  0  0  0  0  0  0  0  0
    4.2868   -2.4750    0.0000 C   0  0  0  0  0  0  0  0  0  0  0  0
  1  2  1  0  0  0  0
  2  3  2  0  0  0  0
  2  4  1  0  0  0  0
  4  5  2  0  0  0  0
  5  6  1  0  0  0  0
  6  7  2  0  0  0  0
  7  8  1  0  0  0  0
  8  9  2  0  0  0  0
  4  9  1  0  0  0  0
  9 10  1  0  0  0  0
 10 11  1  0  0  0  0
 11 12  2  0  0  0  0
 12 13  1  0  0  0  0
 13 14  2  0  0  0  0
 14 15  1  0  0  0  0
 15 16  2  0  0  0  0
 11 16  1  0  0  0  0
M  END
>  <Catalog ID>
Z1473284016

>  <PlateID>
1198308-R-SPFL-05

>  <Well>
H08

>  <MW (desalted)>
215.205

>  <ClogP>
2.467

>  <HBD>
1

>  <TPSA>
59.420

>  <RotBonds>
3

$$$$

            

 13 14  0  0  0  0            999 V2000
    2.9684   -1.7138    0.0000 O   0  0  0  0  0  0  0  0  0  0  0  0
    2.5559   -0.9993    0.0000 S   0  0  0  0  0  0  0  0  0  0  0  0
    2.1434   -0.2849    0.0000 O   0  0  0  0  0  0  0  0  0  0  0  0
    1.8414   -1.4118    0.0000 N   0  0  0  0  0  0  0  0  0  0  0  0
    1.8414   -2.2368    0.0000 C   0  0  0  0  0  0  0  0  0  0  0  0
    2.2539   -2.9513    0.0000 C   0  0  0  0  0  0  0  0  0  0  0  0
    1.4289   -2.9513    0.0000 C   0  0  0  0  0  0  0  0  0  0  0  0
    3.2704   -0.5868    0.0000 C   0  0  0  0  0  0  0  0  0  0  0  0
    3.2704    0.2382    0.0000 C   0  0  0  0  0  0  0  0  0  0  0  0
    3.9849    0.6507    0.0000 C   0  0  0  0  0  0  0  0  0  0  0  0
    4.6993    0.2382    0.0000 C   0  0  0  0  0  0  0  0  0  0  0  0
    4.6993   -0.5868    0.0000 N   0  0  0  0  0  0  0  0  0  0  0  0
    3.9849   -0.9993    0.0000 C   0  0  0  0  0  0  0  0  0  0  0  0
  1  2  2  0  0  0  0
  2  3  2  0  0  0  0
  2  4  1  0  0  0  0
  4  5  1  0  0  0  0
  5  6  1  0  0  0  0
  6  7  1  0  0  0  0
  5  7  1  0  0  0  0
  2  8  1  0  0  0  0
  8  9  2  0  0  0  0
  9 10  1  0  0  0  0
 10 11  2  0  0  0  0
 11 12  1  0  0  0  0
 12 13  2  0  0  0  0
  8 13  1  0  0  0  0
M  END
>  <Catalog ID>
Z334705664

>  <PlateID>
1198308-R-SPFL-05

>  <Well>
H09

>  <MW (desalted)>
198.242

>  <ClogP>
1.085

>  <HBD>
1

>  <TPSA>
59.060

>  <RotBonds>
2

$$$$

            

 13 13  0  0  0  0            999 V2000
    0.0000    0.0000    0.0000 Cl  0  0  0  0  0  0  0  0  0  0  0  0
    4.2244    2.3509    0.0000 C   0  0  0  0  0  0  0  0  0  0  0  0
    4.2244    1.5259    0.0000 C   0  0  0  0  0  0  0  0  0  0  0  0
    4.8919    1.0409    0.0000 N   0  0  0  0  0  0  0  0  0  0  0  0
    4.6369    0.2563    0.0000 O   0  0  0  0  0  0  0  0  0  0  0  0
    3.8119    0.2563    0.0000 C   0  0  0  0  0  0  0  0  0  0  0  0
    3.5570    1.0409    0.0000 N   0  0  0  0  0  0  0  0  0  0  0  0
    3.3270   -0.4111    0.0000 C   0  0  0  0  0  0  0  0  0  0  0  0
    3.6625   -1.1648    0.0000 C   0  0  0  0  0  0  0  0  0  0  0  0
    3.1776   -1.8322    0.0000 C   0  0  0  0  0  0  0  0  0  0  0  0
    2.3571   -1.7460    0.0000 C   0  0  0  0  0  0  0  0  0  0  0  0
    2.0216   -0.9923    0.0000 N   0  0  0  0  0  0  0  0  0  0  0  0
    2.5065   -0.3249    0.0000 C   0  0  0  0  0  0  0  0  0  0  0  0
  2  3  1  0  0  0  0
  3  4  2  0  0  0  0
  4  5  1  0  0  0  0
  5  6  1  0  0  0  0
  6  7  2  0  0  0  0
  3  7  1  0  0  0  0
  6  8  1  0  0  0  0
  8  9  1  0  0  0  0
  9 10  1  0  0  0  0
 10 11  1  0  0  0  0
 11 12  1  0  0  0  0
 12 13  1  0  0  0  0
  8 13  1  0  0  0  0
M  END
>  <Catalog ID>
Z744754630

>  <PlateID>
1198308-R-SPFL-05

>  <Well>
H10

>  <MW (desalted)>
167.208

>  <ClogP>
-0.116

>  <HBD>
1

>  <TPSA>
50.950

>  <RotBonds>
1

$$$$

            

 14 15  0  0  0  0            999 V2000
    0.0000   -2.4750    0.0000 C   0  0  0  0  0  0  0  0  0  0  0  0
    0.0000   -1.6500    0.0000 O   0  0  0  0  0  0  0  0  0  0  0  0
    0.7145   -1.2375    0.0000 C   0  0  0  0  0  0  0  0  0  0  0  0
    0.7145   -0.4125    0.0000 C   0  0  0  0  0  0  0  0  0  0  0  0
    1.4289    0.0000    0.0000 C   0  0  0  0  0  0  0  0  0  0  0  0
    1.4289    0.8250    0.0000 C   0  0  0  0  0  0  0  0  0  0  0  0
    2.1434    1.2375    0.0000 N   0  0  0  0  0  0  0  0  0  0  0  0
    2.1434   -0.4125    0.0000 C   0  0  0  0  0  0  0  0  0  0  0  0
    2.8579    0.0000    0.0000 C   0  0  0  0  0  0  0  0  0  0  0  0
    3.5724   -0.4125    0.0000 C   0  0  0  0  0  0  0  0  0  0  0  0
    3.5724   -1.2375    0.0000 C   0  0  0  0  0  0  0  0  0  0  0  0
    2.8579   -1.6500    0.0000 C   0  0  0  0  0  0  0  0  0  0  0  0
    2.1434   -1.2375    0.0000 C   0  0  0  0  0  0  0  0  0  0  0  0
    1.4289   -1.6500    0.0000 N   0  0  0  0  0  0  0  0  0  0  0  0
  1  2  1  0  0  0  0
  2  3  1  0  0  0  0
  3  4  1  0  0  0  0
  4  5  2  0  0  0  0
  5  6  1  0  0  0  0
  6  7  1  0  0  0  0
  5  8  1  0  0  0  0
  8  9  2  0  0  0  0
  9 10  1  0  0  0  0
 10 11  2  0  0  0  0
 11 12  1  0  0  0  0
 12 13  2  0  0  0  0
  8 13  1  0  0  0  0
 13 14  1  0  0  0  0
  3 14  2  0  0  0  0
M  END
>  <Catalog ID>
Z971093468

>  <PlateID>
1198308-R-SPFL-05

>  <Well>
H11

>  <MW (desalted)>
188.226

>  <ClogP>
1.801

>  <HBD>
1

>  <TPSA>
48.140

>  <RotBonds>
2

$$$$

            

 11 11  0  0  0  0            999 V2000
    1.2822    2.3518    0.0000 O   0  0  0  0  0  0  0  0  0  0  0  0
    0.5678    1.9393    0.0000 C   0  0  0  0  0  0  0  0  0  0  0  0
    0.5678    1.1143    0.0000 C   0  0  0  0  0  0  0  0  0  0  0  0
    1.2352    0.6294    0.0000 C   0  0  0  0  0  0  0  0  0  0  0  0
    0.9803   -0.1553    0.0000 N   0  0  0  0  0  0  0  0  0  0  0  0
    0.1553   -0.1553    0.0000 C   0  0  0  0  0  0  0  0  0  0  0  0
   -0.0997    0.6294    0.0000 O   0  0  0  0  0  0  0  0  0  0  0  0
   -0.3297   -0.8227    0.0000 C   0  0  0  0  0  0  0  0  0  0  0  0
   -0.8146   -1.4901    0.0000 F   0  0  0  0  0  0  0  0  0  0  0  0
   -0.9971   -0.3378    0.0000 F   0  0  0  0  0  0  0  0  0  0  0  0
    0.3378   -1.3076    0.0000 F   0  0  0  0  0  0  0  0  0  0  0  0
  1  2  1  0  0  0  0
  2  3  1  0  0  0  0
  3  4  2  0  0  0  0
  4  5  1  0  0  0  0
  5  6  2  0  0  0  0
  6  7  1  0  0  0  0
  3  7  1  0  0  0  0
  6  8  1  0  0  0  0
  8  9  1  0  0  0  0
  8 10  1  0  0  0  0
  8 11  1  0  0  0  0
M  END
>  <Catalog ID>
Z1209979958

>  <PlateID>
1198308-R-SPFL-06

>  <Well>
A02

>  <MW (desalted)>
167.086

>  <ClogP>
-0.187

>  <HBD>
1

>  <TPSA>
46.260

>  <RotBonds>
2

$$$$

            

 10 10  0  0  0  0            999 V2000
    0.0157    1.7274    0.0000 N   0  0  0  0  0  0  0  0  0  0  0  0
    0.5678    1.1143    0.0000 C   0  0  0  0  0  0  0  0  0  0  0  0
    1.2352    0.6294    0.0000 C   0  0  0  0  0  0  0  0  0  0  0  0
    0.9803   -0.1553    0.0000 C   0  0  0  0  0  0  0  0  0  0  0  0
    0.1553   -0.1553    0.0000 O   0  0  0  0  0  0  0  0  0  0  0  0
   -0.0997    0.6294    0.0000 C   0  0  0  0  0  0  0  0  0  0  0  0
    1.1198    1.7274    0.0000 C   0  0  0  0  0  0  0  0  0  0  0  0
    1.6718    2.3405    0.0000 F   0  0  0  0  0  0  0  0  0  0  0  0
    1.7329    1.1753    0.0000 F   0  0  0  0  0  0  0  0  0  0  0  0
    0.5067    2.2794    0.0000 F   0  0  0  0  0  0  0  0  0  0  0  0
  1  2  1  0  0  0  0
  2  3  1  0  0  0  0
  3  4  1  0  0  0  0
  4  5  1  0  0  0  0
  5  6  1  0  0  0  0
  2  6  1  0  0  0  0
  2  7  1  0  0  0  0
  7  8  1  0  0  0  0
  7  9  1  0  0  0  0
  7 10  1  0  0  0  0
M  END
>  <Catalog ID>
Z1171182901

>  <PlateID>
1198308-R-SPFL-06

>  <Well>
A03

>  <MW (desalted)>
155.118

>  <ClogP>
0.339

>  <HBD>
1

>  <TPSA>
35.250

>  <RotBonds>
1

$$$$

            

 12 13  0  0  1  0            999 V2000
   -0.7145   -0.4125    0.0000 N   0  0  0  0  0  0  0  0  0  0  0  0
    0.0000   -0.0000    0.0000 C   0  0  0  0  0  0  0  0  0  0  0  0
    0.7145   -0.4125    0.0000 C   0  0  2  0  0  0  0  0  0  0  0  0
    1.4289    0.0000    0.0000 C   0  0  0  0  0  0  0  0  0  0  0  0
    2.1434   -0.4125    0.0000 C   0  0  0  0  0  0  0  0  0  0  0  0
    2.8579    0.0000    0.0000 C   0  0  0  0  0  0  0  0  0  0  0  0
    3.5724   -0.4125    0.0000 C   0  0  0  0  0  0  0  0  0  0  0  0
    3.5724   -1.2375    0.0000 C   0  0  0  0  0  0  0  0  0  0  0  0
    2.8579   -1.6500    0.0000 C   0  0  0  0  0  0  0  0  0  0  0  0
    2.1434   -1.2375    0.0000 C   0  0  0  0  0  0  0  0  0  0  0  0
    1.4289   -1.6500    0.0000 C   0  0  0  0  0  0  0  0  0  0  0  0
    0.7145   -1.2375    0.0000 O   0  0  0  0  0  0  0  0  0  0  0  0
  1  2  1  0  0  0  0
  3  2  1  6  0  0  0
  3  4  1  0  0  0  0
  4  5  1  0  0  0  0
  5  6  2  0  0  0  0
  6  7  1  0  0  0  0
  7  8  2  0  0  0  0
  8  9  1  0  0  0  0
  9 10  2  0  0  0  0
  5 10  1  0  0  0  0
 10 11  1  0  0  0  0
 11 12  1  0  0  0  0
  3 12  1  0  0  0  0
M  END
>  <Catalog ID>
Z2603912805

>  <PlateID>
1198308-R-SPFL-06

>  <Well>
A04

>  <MW (desalted)>
163.216

>  <ClogP>
1.004

>  <HBD>
1

>  <TPSA>
35.250

>  <RotBonds>
1

$$$$

            

 15 16  0  0  0  0            999 V2000
    2.8579    0.0000    0.0000 N   0  0  0  0  0  0  0  0  0  0  0  0
    2.1434   -0.4125    0.0000 C   0  0  0  0  0  0  0  0  0  0  0  0
    2.1434   -1.2375    0.0000 C   0  0  0  0  0  0  0  0  0  0  0  0
    2.8579   -1.6500    0.0000 C   0  0  0  0  0  0  0  0  0  0  0  0
    2.8579   -2.4750    0.0000 C   0  0  0  0  0  0  0  0  0  0  0  0
    2.1434   -2.8875    0.0000 C   0  0  0  0  0  0  0  0  0  0  0  0
    1.4289   -2.4750    0.0000 N   0  0  0  0  0  0  0  0  0  0  0  0
    0.7145   -2.8875    0.0000 C   0  0  0  0  0  0  0  0  0  0  0  0
    0.0000   -2.4750    0.0000 C   0  0  0  0  0  0  0  0  0  0  0  0
   -0.7145   -2.8875    0.0000 C   0  0  0  0  0  0  0  0  0  0  0  0
   -1.4289   -2.4750    0.0000 C   0  0  0  0  0  0  0  0  0  0  0  0
   -1.4289   -1.6500    0.0000 C   0  0  0  0  0  0  0  0  0  0  0  0
   -0.7145   -1.2375    0.0000 C   0  0  0  0  0  0  0  0  0  0  0  0
    0.0000   -1.6500    0.0000 C   0  0  0  0  0  0  0  0  0  0  0  0
    1.4289   -1.6500    0.0000 C   0  0  0  0  0  0  0  0  0  0  0  0
  1  2  1  0  0  0  0
  2  3  1  0  0  0  0
  3  4  1  0  0  0  0
  4  5  1  0  0  0  0
  5  6  1  0  0  0  0
  6  7  1  0  0  0  0
  7  8  1  0  0  0  0
  8  9  1  0  0  0  0
  9 10  2  0  0  0  0
 10 11  1  0  0  0  0
 11 12  2  0  0  0  0
 12 13  1  0  0  0  0
 13 14  2  0  0  0  0
  9 14  1  0  0  0  0
  7 15  1  0  0  0  0
  3 15  1  0  0  0  0
M  END
>  <Catalog ID>
Z326202876

>  <PlateID>
1198308-R-SPFL-06

>  <Well>
A05

>  <MW (desalted)>
204.311

>  <ClogP>
1.801

>  <HBD>
1

>  <TPSA>
29.260

>  <RotBonds>
3

$$$$

            

 10 10  0  0  0  0            999 V2000
   -0.1467    2.3518    0.0000 C   0  0  0  0  0  0  0  0  0  0  0  0
    0.5678    1.9393    0.0000 C   0  0  0  0  0  0  0  0  0  0  0  0
    1.2822    2.3518    0.0000 C   0  0  0  0  0  0  0  0  0  0  0  0
    0.5678    1.1143    0.0000 N   0  0  0  0  0  0  0  0  0  0  0  0
    1.2352    0.6294    0.0000 C   0  0  0  0  0  0  0  0  0  0  0  0
    0.9803   -0.1553    0.0000 C   0  0  0  0  0  0  0  0  0  0  0  0
    1.4652   -0.8227    0.0000 C   0  0  0  0  0  0  0  0  0  0  0  0
    2.2857   -0.7365    0.0000 O   0  0  0  0  0  0  0  0  0  0  0  0
    0.1553   -0.1553    0.0000 N   0  0  0  0  0  0  0  0  0  0  0  0
   -0.0997    0.6294    0.0000 N   0  0  0  0  0  0  0  0  0  0  0  0
  1  2  1  0  0  0  0
  2  3  1  0  0  0  0
  2  4  1  0  0  0  0
  4  5  1  0  0  0  0
  5  6  2  0  0  0  0
  6  7  1  0  0  0  0
  7  8  1  0  0  0  0
  6  9  1  0  0  0  0
  9 10  2  0  0  0  0
  4 10  1  0  0  0  0
M  END
>  <Catalog ID>
Z982118326

>  <PlateID>
1198308-R-SPFL-06

>  <Well>
A06

>  <MW (desalted)>
141.171

>  <ClogP>
-0.730

>  <HBD>
1

>  <TPSA>
50.940

>  <RotBonds>
2

$$$$

            

 12 13  0  0  0  0            999 V2000
    0.7145   -2.8875    0.0000 N   0  0  0  0  0  0  0  0  0  0  0  0
    1.4289   -2.4750    0.0000 C   0  0  0  0  0  0  0  0  0  0  0  0
    1.4289   -1.6500    0.0000 C   0  0  0  0  0  0  0  0  0  0  0  0
    0.7145   -1.2375    0.0000 C   0  0  0  0  0  0  0  0  0  0  0  0
    0.7145   -0.4125    0.0000 C   0  0  0  0  0  0  0  0  0  0  0  0
    1.4289    0.0000    0.0000 C   0  0  0  0  0  0  0  0  0  0  0  0
    2.1434   -0.4125    0.0000 C   0  0  0  0  0  0  0  0  0  0  0  0
    2.8579    0.0000    0.0000 C   0  0  0  0  0  0  0  0  0  0  0  0
    3.5724   -0.4125    0.0000 C   0  0  0  0  0  0  0  0  0  0  0  0
    3.5724   -1.2375    0.0000 C   0  0  0  0  0  0  0  0  0  0  0  0
    2.8579   -1.6500    0.0000 N   0  0  0  0  0  0  0  0  0  0  0  0
    2.1434   -1.2375    0.0000 C   0  0  0  0  0  0  0  0  0  0  0  0
  1  2  1  0  0  0  0
  2  3  1  0  0  0  0
  3  4  2  0  0  0  0
  4  5  1  0  0  0  0
  5  6  2  0  0  0  0
  6  7  1  0  0  0  0
  7  8  2  0  0  0  0
  8  9  1  0  0  0  0
  9 10  2  0  0  0  0
 10 11  1  0  0  0  0
 11 12  2  0  0  0  0
  3 12  1  0  0  0  0
  7 12  1  0  0  0  0
M  END
>  <Catalog ID>
Z234897549

>  <PlateID>
1198308-R-SPFL-06

>  <Well>
A07

>  <MW (desalted)>
158.200

>  <ClogP>
0.981

>  <HBD>
1

>  <TPSA>
38.910

>  <RotBonds>
1

$$$$

            

 11 11  0  0  0  0            999 V2000
    0.7145    2.0625    0.0000 N   0  0  0  0  0  0  0  0  0  0  0  0
    0.7145    1.2375    0.0000 C   0  0  0  0  0  0  0  0  0  0  0  0
    1.4289    0.8250    0.0000 C   0  0  0  0  0  0  0  0  0  0  0  0
    1.4289   -0.0000    0.0000 C   0  0  0  0  0  0  0  0  0  0  0  0
    0.7145   -0.4125    0.0000 C   0  0  0  0  0  0  0  0  0  0  0  0
    0.0000    0.0000    0.0000 N   0  0  0  0  0  0  0  0  0  0  0  0
    0.0000    0.8250    0.0000 N   0  0  0  0  0  0  0  0  0  0  0  0
    0.7145   -1.2375    0.0000 C   0  0  0  0  0  0  0  0  0  0  0  0
    0.7145   -2.0625    0.0000 F   0  0  0  0  0  0  0  0  0  0  0  0
   -0.1105   -1.2375    0.0000 F   0  0  0  0  0  0  0  0  0  0  0  0
    1.5395   -1.2375    0.0000 F   0  0  0  0  0  0  0  0  0  0  0  0
  1  2  1  0  0  0  0
  2  3  2  0  0  0  0
  3  4  1  0  0  0  0
  4  5  2  0  0  0  0
  5  6  1  0  0  0  0
  6  7  2  0  0  0  0
  2  7  1  0  0  0  0
  5  8  1  0  0  0  0
  8  9  1  0  0  0  0
  8 10  1  0  0  0  0
  8 11  1  0  0  0  0
M  END
>  <Catalog ID>
Z1255384768

>  <PlateID>
1198308-R-SPFL-06

>  <Well>
A08

>  <MW (desalted)>
163.101

>  <ClogP>
0.562

>  <HBD>
1

>  <TPSA>
51.800

>  <RotBonds>
1

$$$$

            

 10 11  0  0  0  0            999 V2000
   -0.1709    0.4125    0.0000 C   0  0  0  0  0  0  0  0  0  0  0  0
    0.4125    0.9959    0.0000 C   0  0  0  0  0  0  0  0  0  0  0  0
    0.9959    0.4125    0.0000 C   0  0  0  0  0  0  0  0  0  0  0  0
    1.3538    1.1558    0.0000 C   0  0  0  0  0  0  0  0  0  0  0  0
    2.1581    1.3394    0.0000 C   0  0  0  0  0  0  0  0  0  0  0  0
    2.8031    0.8250    0.0000 C   0  0  0  0  0  0  0  0  0  0  0  0
    2.8031   -0.0000    0.0000 O   0  0  0  0  0  0  0  0  0  0  0  0
    2.1581   -0.5144    0.0000 C   0  0  0  0  0  0  0  0  0  0  0  0
    1.3538   -0.3308    0.0000 C   0  0  0  0  0  0  0  0  0  0  0  0
    0.4125   -0.1709    0.0000 N   0  0  0  0  0  0  0  0  0  0  0  0
  1  2  1  0  0  0  0
  2  3  1  0  0  0  0
  3  4  1  0  0  0  0
  4  5  1  0  0  0  0
  5  6  1  0  0  0  0
  6  7  1  0  0  0  0
  7  8  1  0  0  0  0
  8  9  1  0  0  0  0
  3  9  1  0  0  0  0
  3 10  1  0  0  0  0
  1 10  1  0  0  0  0
M  END
>  <Catalog ID>
Z1201627698

>  <PlateID>
1198308-R-SPFL-06

>  <Well>
A09

>  <MW (desalted)>
141.211

>  <ClogP>
-0.032

>  <HBD>
1

>  <TPSA>
21.260

>  <RotBonds>
0

$$$$

            

 11 12  0  0  0  0            999 V2000
    0.7145    5.9411    0.0000 C   0  0  0  0  0  0  0  0  0  0  0  0
    1.4289    5.5286    0.0000 C   0  0  0  0  0  0  0  0  0  0  0  0
    1.4289    4.7036    0.0000 C   0  0  0  0  0  0  0  0  0  0  0  0
    0.7145    4.2911    0.0000 C   0  0  0  0  0  0  0  0  0  0  0  0
    0.0000    4.7036    0.0000 O   0  0  0  0  0  0  0  0  0  0  0  0
    0.0000    5.5286    0.0000 C   0  0  0  0  0  0  0  0  0  0  0  0
    0.7145    3.4661    0.0000 N   0  0  0  0  0  0  0  0  0  0  0  0
    1.3819    2.9812    0.0000 C   0  0  0  0  0  0  0  0  0  0  0  0
    1.1270    2.1965    0.0000 C   0  0  0  0  0  0  0  0  0  0  0  0
    0.3020    2.1965    0.0000 C   0  0  0  0  0  0  0  0  0  0  0  0
    0.0470    2.9812    0.0000 N   0  0  0  0  0  0  0  0  0  0  0  0
  1  2  1  0  0  0  0
  2  3  1  0  0  0  0
  3  4  1  0  0  0  0
  4  5  1  0  0  0  0
  5  6  1  0  0  0  0
  1  6  1  0  0  0  0
  4  7  1  0  0  0  0
  7  8  1  0  0  0  0
  8  9  2  0  0  0  0
  9 10  1  0  0  0  0
 10 11  2  0  0  0  0
  7 11  1  0  0  0  0
M  END
>  <Catalog ID>
Z1255435773

>  <PlateID>
1198308-R-SPFL-06

>  <Well>
A10

>  <MW (desalted)>
152.194

>  <ClogP>
0.990

>  <HBD>
0

>  <TPSA>
27.050

>  <RotBonds>
1

$$$$

            

 12 13  0  0  0  0            999 V2000
    0.0000   -2.4750    0.0000 O   0  0  0  0  0  0  0  0  0  0  0  0
    0.0000   -1.6500    0.0000 C   0  0  0  0  0  0  0  0  0  0  0  0
    0.7145   -1.2375    0.0000 C   0  0  0  0  0  0  0  0  0  0  0  0
    0.7145   -0.4125    0.0000 C   0  0  0  0  0  0  0  0  0  0  0  0
    1.4289    0.0000    0.0000 C   0  0  0  0  0  0  0  0  0  0  0  0
    2.1434   -0.4125    0.0000 C   0  0  0  0  0  0  0  0  0  0  0  0
    2.8579    0.0000    0.0000 C   0  0  0  0  0  0  0  0  0  0  0  0
    3.5724   -0.4125    0.0000 C   0  0  0  0  0  0  0  0  0  0  0  0
    3.5724   -1.2375    0.0000 C   0  0  0  0  0  0  0  0  0  0  0  0
    2.8579   -1.6500    0.0000 C   0  0  0  0  0  0  0  0  0  0  0  0
    2.1434   -1.2375    0.0000 C   0  0  0  0  0  0  0  0  0  0  0  0
    1.4289   -1.6500    0.0000 N   0  0  0  0  0  0  0  0  0  0  0  0
  1  2  1  0  0  0  0
  2  3  1  0  0  0  0
  3  4  1  0  0  0  0
  4  5  2  0  0  0  0
  5  6  1  0  0  0  0
  6  7  2  0  0  0  0
  7  8  1  0  0  0  0
  8  9  2  0  0  0  0
  9 10  1  0  0  0  0
 10 11  2  0  0  0  0
  6 11  1  0  0  0  0
 11 12  1  0  0  0  0
  3 12  2  0  0  0  0
M  END
>  <Catalog ID>
Z99599678

>  <PlateID>
1198308-R-SPFL-06

>  <Well>
A11

>  <MW (desalted)>
159.185

>  <ClogP>
1.441

>  <HBD>
1

>  <TPSA>
33.120

>  <RotBonds>
1

$$$$

            

 12 11  0  0  0  0            999 V2000
    0.0000    0.0000    0.0000 Cl  0  0  0  0  0  0  0  0  0  0  0  0
    2.3571    2.1340    0.0000 N   0  0  0  0  0  0  0  0  0  0  0  0
    3.0716    1.7215    0.0000 C   0  0  0  0  0  0  0  0  0  0  0  0
    3.0716    0.8965    0.0000 C   0  0  0  0  0  0  0  0  0  0  0  0
    3.7391    0.4116    0.0000 C   0  0  0  0  0  0  0  0  0  0  0  0
    3.4841   -0.3730    0.0000 C   0  0  0  0  0  0  0  0  0  0  0  0
    2.6591   -0.3730    0.0000 O   0  0  0  0  0  0  0  0  0  0  0  0
    2.4042    0.4116    0.0000 N   0  0  0  0  0  0  0  0  0  0  0  0
    3.9690   -1.0405    0.0000 C   0  0  0  0  0  0  0  0  0  0  0  0
    4.4540   -1.7079    0.0000 F   0  0  0  0  0  0  0  0  0  0  0  0
    3.3016   -1.5254    0.0000 F   0  0  0  0  0  0  0  0  0  0  0  0
    4.6365   -0.5555    0.0000 F   0  0  0  0  0  0  0  0  0  0  0  0
  2  3  1  0  0  0  0
  3  4  1  0  0  0  0
  4  5  1  0  0  0  0
  5  6  2  0  0  0  0
  6  7  1  0  0  0  0
  7  8  1  0  0  0  0
  4  8  2  0  0  0  0
  6  9  1  0  0  0  0
  9 10  1  0  0  0  0
  9 11  1  0  0  0  0
  9 12  1  0  0  0  0
M  END
>  <Catalog ID>
Z1509412282

>  <PlateID>
1198308-R-SPFL-06

>  <Well>
B02

>  <MW (desalted)>
166.101

>  <ClogP>
0.227

>  <HBD>
1

>  <TPSA>
52.050

>  <RotBonds>
2

$$$$

            

 14 13  0  0  0  0            999 V2000
    0.0000    0.0000    0.0000 Cl  0  0  0  0  0  0  0  0  0  0  0  0
    2.0036    0.0000    0.0000 Cl  0  0  0  0  0  0  0  0  0  0  0  0
   -0.0000   -5.7750    0.0000 C   0  0  0  0  0  0  0  0  0  0  0  0
   -0.7145   -5.3625    0.0000 C   0  0  0  0  0  0  0  0  0  0  0  0
   -0.7145   -4.5375    0.0000 C   0  0  0  0  0  0  0  0  0  0  0  0
   -0.0000   -4.1250    0.0000 C   0  0  0  0  0  0  0  0  0  0  0  0
    0.7145   -4.5375    0.0000 C   0  0  0  0  0  0  0  0  0  0  0  0
    0.7145   -5.3625    0.0000 N   0  0  0  0  0  0  0  0  0  0  0  0
    0.0000   -3.3000    0.0000 C   0  0  0  0  0  0  0  0  0  0  0  0
   -0.7145   -2.8875    0.0000 C   0  0  0  0  0  0  0  0  0  0  0  0
   -0.7145   -2.0625    0.0000 C   0  0  0  0  0  0  0  0  0  0  0  0
    0.0000   -1.6500    0.0000 C   0  0  0  0  0  0  0  0  0  0  0  0
    0.7145   -2.0625    0.0000 N   0  0  0  0  0  0  0  0  0  0  0  0
    0.7145   -2.8875    0.0000 C   0  0  0  0  0  0  0  0  0  0  0  0
  3  4  1  0  0  0  0
  4  5  1  0  0  0  0
  5  6  2  0  0  0  0
  6  7  1  0  0  0  0
  7  8  1  0  0  0  0
  3  8  1  0  0  0  0
  6  9  1  0  0  0  0
  9 10  2  0  0  0  0
 10 11  1  0  0  0  0
 11 12  2  0  0  0  0
 12 13  1  0  0  0  0
 13 14  2  0  0  0  0
  9 14  1  0  0  0  0
M  END
>  <Catalog ID>
Z2517097759

>  <PlateID>
1198308-R-SPFL-06

>  <Well>
B03

>  <MW (desalted)>
160.216

>  <ClogP>
0.892

>  <HBD>
1

>  <TPSA>
24.920

>  <RotBonds>
1

$$$$

            

 11 11  0  0  0  0            999 V2000
    0.0000    3.3000    0.0000 C   0  0  0  0  0  0  0  0  0  0  0  0
    0.0000    2.4750    0.0000 N   0  0  0  0  0  0  0  0  0  0  0  0
    0.7145    2.0625    0.0000 C   0  0  0  0  0  0  0  0  0  0  0  0
    0.7145    1.2375    0.0000 C   0  0  0  0  0  0  0  0  0  0  0  0
    1.4289    0.8250    0.0000 C   0  0  0  0  0  0  0  0  0  0  0  0
    1.4289   -0.0000    0.0000 C   0  0  0  0  0  0  0  0  0  0  0  0
    0.7145   -0.4125    0.0000 C   0  0  0  0  0  0  0  0  0  0  0  0
    0.7145   -1.2375    0.0000 O   0  0  0  0  0  0  0  0  0  0  0  0
    1.4289   -1.6500    0.0000 C   0  0  0  0  0  0  0  0  0  0  0  0
    0.0000    0.0000    0.0000 C   0  0  0  0  0  0  0  0  0  0  0  0
    0.0000    0.8250    0.0000 C   0  0  0  0  0  0  0  0  0  0  0  0
  1  2  1  0  0  0  0
  2  3  1  0  0  0  0
  3  4  1  0  0  0  0
  4  5  2  0  0  0  0
  5  6  1  0  0  0  0
  6  7  2  0  0  0  0
  7  8  1  0  0  0  0
  8  9  1  0  0  0  0
  7 10  1  0  0  0  0
 10 11  2  0  0  0  0
  4 11  1  0  0  0  0
M  END
>  <Catalog ID>
Z56928625

>  <PlateID>
1198308-R-SPFL-06

>  <Well>
B04

>  <MW (desalted)>
151.206

>  <ClogP>
1.429

>  <HBD>
1

>  <TPSA>
21.260

>  <RotBonds>
3

$$$$

            

 11 12  0  0  0  0            999 V2000
    4.0668    3.1729    0.0000 N   0  0  0  0  0  0  0  0  0  0  0  0
    4.0668    2.3479    0.0000 C   0  0  0  0  0  0  0  0  0  0  0  0
    3.3523    1.9354    0.0000 C   0  0  0  0  0  0  0  0  0  0  0  0
    3.3523    1.1104    0.0000 C   0  0  0  0  0  0  0  0  0  0  0  0
    2.6378    0.6979    0.0000 N   0  0  0  0  0  0  0  0  0  0  0  0
    1.9233    1.1104    0.0000 C   0  0  0  0  0  0  0  0  0  0  0  0
    1.1387    0.8555    0.0000 C   0  0  0  0  0  0  0  0  0  0  0  0
    0.6538    1.5229    0.0000 C   0  0  0  0  0  0  0  0  0  0  0  0
    1.1387    2.1904    0.0000 S   0  0  0  0  0  0  0  0  0  0  0  0
    1.9233    1.9354    0.0000 C   0  0  0  0  0  0  0  0  0  0  0  0
    2.6378    2.3479    0.0000 C   0  0  0  0  0  0  0  0  0  0  0  0
  1  2  1  0  0  0  0
  2  3  1  0  0  0  0
  3  4  2  0  0  0  0
  4  5  1  0  0  0  0
  5  6  2  0  0  0  0
  6  7  1  0  0  0  0
  7  8  2  0  0  0  0
  8  9  1  0  0  0  0
  9 10  1  0  0  0  0
  6 10  1  0  0  0  0
 10 11  2  0  0  0  0
  3 11  1  0  0  0  0
M  END
>  <Catalog ID>
Z1202210801

>  <PlateID>
1198308-R-SPFL-06

>  <Well>
B05

>  <MW (desalted)>
164.228

>  <ClogP>
0.983

>  <HBD>
1

>  <TPSA>
38.910

>  <RotBonds>
1

$$$$

            

 12 13  0  0  0  0            999 V2000
    4.0668    3.1729    0.0000 O   0  0  0  0  0  0  0  0  0  0  0  0
    4.0668    2.3479    0.0000 C   0  0  0  0  0  0  0  0  0  0  0  0
    4.7812    1.9354    0.0000 O   0  0  0  0  0  0  0  0  0  0  0  0
    3.3523    1.9354    0.0000 C   0  0  0  0  0  0  0  0  0  0  0  0
    3.3523    1.1104    0.0000 C   0  0  0  0  0  0  0  0  0  0  0  0
    2.6378    0.6979    0.0000 C   0  0  0  0  0  0  0  0  0  0  0  0
    1.9233    1.1104    0.0000 C   0  0  0  0  0  0  0  0  0  0  0  0
    1.1387    0.8555    0.0000 N   0  0  0  0  0  0  0  0  0  0  0  0
    0.6538    1.5229    0.0000 C   0  0  0  0  0  0  0  0  0  0  0  0
    1.1387    2.1904    0.0000 O   0  0  0  0  0  0  0  0  0  0  0  0
    1.9233    1.9354    0.0000 C   0  0  0  0  0  0  0  0  0  0  0  0
    2.6378    2.3479    0.0000 C   0  0  0  0  0  0  0  0  0  0  0  0
  1  2  1  0  0  0  0
  2  3  2  0  0  0  0
  2  4  1  0  0  0  0
  4  5  2  0  0  0  0
  5  6  1  0  0  0  0
  6  7  2  0  0  0  0
  7  8  1  0  0  0  0
  8  9  2  0  0  0  0
  9 10  1  0  0  0  0
 10 11  1  0  0  0  0
  7 11  1  0  0  0  0
 11 12  2  0  0  0  0
  4 12  1  0  0  0  0
M  END
>  <Catalog ID>
Z1033256932

>  <PlateID>
1198308-R-SPFL-06

>  <Well>
B06

>  <MW (desalted)>
163.130

>  <ClogP>
1.466

>  <HBD>
1

>  <TPSA>
63.330

>  <RotBonds>
1

$$$$

            

 14 15  0  0  0  0            999 V2000
    2.7512   -0.0616    0.0000 N   0  0  0  0  0  0  0  0  0  0  0  0
    2.0367   -0.4741    0.0000 C   0  0  0  0  0  0  0  0  0  0  0  0
    2.0367   -1.2991    0.0000 C   0  0  0  0  0  0  0  0  0  0  0  0
    2.7041   -1.7840    0.0000 C   0  0  0  0  0  0  0  0  0  0  0  0
    2.4492   -2.5687    0.0000 N   0  0  0  0  0  0  0  0  0  0  0  0
    1.6242   -2.5687    0.0000 N   0  0  0  0  0  0  0  0  0  0  0  0
    1.1393   -3.2361    0.0000 C   0  0  0  0  0  0  0  0  0  0  0  0
    0.3188   -3.1499    0.0000 C   0  0  0  0  0  0  0  0  0  0  0  0
   -0.1661   -3.8173    0.0000 C   0  0  0  0  0  0  0  0  0  0  0  0
   -0.9866   -3.7311    0.0000 C   0  0  0  0  0  0  0  0  0  0  0  0
   -1.3222   -2.9774    0.0000 C   0  0  0  0  0  0  0  0  0  0  0  0
   -0.8372   -2.3099    0.0000 C   0  0  0  0  0  0  0  0  0  0  0  0
   -0.0168   -2.3962    0.0000 C   0  0  0  0  0  0  0  0  0  0  0  0
    1.3693   -1.7840    0.0000 C   0  0  0  0  0  0  0  0  0  0  0  0
  1  2  1  0  0  0  0
  2  3  1  0  0  0  0
  3  4  1  0  0  0  0
  4  5  2  0  0  0  0
  5  6  1  0  0  0  0
  6  7  1  0  0  0  0
  7  8  1  0  0  0  0
  8  9  2  0  0  0  0
  9 10  1  0  0  0  0
 10 11  2  0  0  0  0
 11 12  1  0  0  0  0
 12 13  2  0  0  0  0
  8 13  1  0  0  0  0
  6 14  1  0  0  0  0
  3 14  2  0  0  0  0
M  END
>  <Catalog ID>
Z317041932

>  <PlateID>
1198308-R-SPFL-06

>  <Well>
B07

>  <MW (desalted)>
187.241

>  <ClogP>
1.167

>  <HBD>
1

>  <TPSA>
43.840

>  <RotBonds>
3

$$$$

            

 11 12  0  0  0  0            999 V2000
    1.1270   -2.5070    0.0000 C   0  0  0  0  0  0  0  0  0  0  0  0
    0.3020   -2.5070    0.0000 C   0  0  0  0  0  0  0  0  0  0  0  0
    0.0470   -1.7224    0.0000 N   0  0  0  0  0  0  0  0  0  0  0  0
    0.7145   -1.2375    0.0000 N   0  0  0  0  0  0  0  0  0  0  0  0
    1.3819   -1.7224    0.0000 C   0  0  0  0  0  0  0  0  0  0  0  0
    0.7145   -0.4125    0.0000 C   0  0  0  0  0  0  0  0  0  0  0  0
    0.0000    0.0000    0.0000 C   0  0  0  0  0  0  0  0  0  0  0  0
    0.0000    0.8250    0.0000 C   0  0  0  0  0  0  0  0  0  0  0  0
    0.7145    1.2375    0.0000 C   0  0  0  0  0  0  0  0  0  0  0  0
    1.4289    0.8250    0.0000 N   0  0  0  0  0  0  0  0  0  0  0  0
    1.4289   -0.0000    0.0000 C   0  0  0  0  0  0  0  0  0  0  0  0
  1  2  1  0  0  0  0
  2  3  2  0  0  0  0
  3  4  1  0  0  0  0
  4  5  1  0  0  0  0
  1  5  2  0  0  0  0
  4  6  1  0  0  0  0
  6  7  2  0  0  0  0
  7  8  1  0  0  0  0
  8  9  2  0  0  0  0
  9 10  1  0  0  0  0
 10 11  2  0  0  0  0
  6 11  1  0  0  0  0
M  END
>  <Catalog ID>
Z1187715085

>  <PlateID>
1198308-R-SPFL-06

>  <Well>
B08

>  <MW (desalted)>
145.161

>  <ClogP>
1.117

>  <HBD>
0

>  <TPSA>
30.710

>  <RotBonds>
1

$$$$

            

 12 12  0  0  0  0            999 V2000
    0.0000    0.0000    0.0000 Cl  0  0  0  0  0  0  0  0  0  0  0  0
    2.3571   -0.6495    0.0000 N   0  0  0  0  0  0  0  0  0  0  0  0
    2.7696    0.0650    0.0000 C   0  0  0  0  0  0  0  0  0  0  0  0
    3.5946    0.0650    0.0000 C   0  0  0  0  0  0  0  0  0  0  0  0
    4.0796    0.7324    0.0000 N   0  0  0  0  0  0  0  0  0  0  0  0
    4.8642    0.4775    0.0000 C   0  0  0  0  0  0  0  0  0  0  0  0
    5.5787    0.8900    0.0000 C   0  0  0  0  0  0  0  0  0  0  0  0
    6.2931    0.4775    0.0000 C   0  0  0  0  0  0  0  0  0  0  0  0
    6.2931   -0.3475    0.0000 C   0  0  0  0  0  0  0  0  0  0  0  0
    5.5787   -0.7600    0.0000 C   0  0  0  0  0  0  0  0  0  0  0  0
    4.8642   -0.3475    0.0000 C   0  0  0  0  0  0  0  0  0  0  0  0
    4.0796   -0.6025    0.0000 O   0  0  0  0  0  0  0  0  0  0  0  0
  2  3  1  0  0  0  0
  3  4  1  0  0  0  0
  4  5  2  0  0  0  0
  5  6  1  0  0  0  0
  6  7  2  0  0  0  0
  7  8  1  0  0  0  0
  8  9  2  0  0  0  0
  9 10  1  0  0  0  0
 10 11  2  0  0  0  0
  6 11  1  0  0  0  0
 11 12  1  0  0  0  0
  4 12  1  0  0  0  0
M  END
>  <Catalog ID>
Z2106602610

>  <PlateID>
1198308-R-SPFL-06

>  <Well>
B09

>  <MW (desalted)>
148.162

>  <ClogP>
0.367

>  <HBD>
1

>  <TPSA>
52.050

>  <RotBonds>
1

$$$$

            

 13 13  0  0  0  0            999 V2000
    0.0000    0.0000    0.0000 Cl  0  0  0  0  0  0  0  0  0  0  0  0
    2.3571   -0.5954    0.0000 N   0  0  0  0  0  0  0  0  0  0  0  0
    3.1821   -0.5954    0.0000 C   0  0  0  0  0  0  0  0  0  0  0  0
    3.5946    0.1191    0.0000 C   0  0  0  0  0  0  0  0  0  0  0  0
    4.4196    0.1191    0.0000 C   0  0  0  0  0  0  0  0  0  0  0  0
    4.9046    0.7865    0.0000 C   0  0  0  0  0  0  0  0  0  0  0  0
    5.6892    0.5316    0.0000 C   0  0  0  0  0  0  0  0  0  0  0  0
    6.4037    0.9441    0.0000 C   0  0  0  0  0  0  0  0  0  0  0  0
    7.1181    0.5316    0.0000 C   0  0  0  0  0  0  0  0  0  0  0  0
    7.1181   -0.2934    0.0000 C   0  0  0  0  0  0  0  0  0  0  0  0
    6.4037   -0.7059    0.0000 C   0  0  0  0  0  0  0  0  0  0  0  0
    5.6892   -0.2934    0.0000 N   0  0  0  0  0  0  0  0  0  0  0  0
    4.9046   -0.5484    0.0000 C   0  0  0  0  0  0  0  0  0  0  0  0
  2  3  1  0  0  0  0
  3  4  1  0  0  0  0
  4  5  1  0  0  0  0
  5  6  1  0  0  0  0
  6  7  2  0  0  0  0
  7  8  1  0  0  0  0
  8  9  2  0  0  0  0
  9 10  1  0  0  0  0
 10 11  2  0  0  0  0
 11 12  1  0  0  0  0
  7 12  1  0  0  0  0
 12 13  1  0  0  0  0
  5 13  2  0  0  0  0
M  END
>  <Catalog ID>
Z2519117225

>  <PlateID>
1198308-R-SPFL-06

>  <Well>
B10

>  <MW (desalted)>
160.216

>  <ClogP>
1.870

>  <HBD>
1

>  <TPSA>
30.430

>  <RotBonds>
2

$$$$

            

 11 12  0  0  0  0            999 V2000
   -2.2334   -0.3020    0.0000 C   0  0  0  0  0  0  0  0  0  0  0  0
   -1.4084   -0.3020    0.0000 C   0  0  0  0  0  0  0  0  0  0  0  0
   -0.9959    0.4125    0.0000 O   0  0  0  0  0  0  0  0  0  0  0  0
   -0.1709    0.4125    0.0000 C   0  0  0  0  0  0  0  0  0  0  0  0
    0.4125    0.9959    0.0000 C   0  0  0  0  0  0  0  0  0  0  0  0
    0.9959    0.4125    0.0000 C   0  0  0  0  0  0  0  0  0  0  0  0
    0.4125   -0.1709    0.0000 C   0  0  0  0  0  0  0  0  0  0  0  0
    1.4808    1.0799    0.0000 C   0  0  0  0  0  0  0  0  0  0  0  0
    2.2654    0.8250    0.0000 C   0  0  0  0  0  0  0  0  0  0  0  0
    2.2654   -0.0000    0.0000 N   0  0  0  0  0  0  0  0  0  0  0  0
    1.4808   -0.2549    0.0000 C   0  0  0  0  0  0  0  0  0  0  0  0
  1  2  1  0  0  0  0
  2  3  1  0  0  0  0
  3  4  1  0  0  0  0
  4  5  1  0  0  0  0
  5  6  1  0  0  0  0
  6  7  1  0  0  0  0
  4  7  1  0  0  0  0
  6  8  1  0  0  0  0
  8  9  1  0  0  0  0
  9 10  1  0  0  0  0
 10 11  1  0  0  0  0
  6 11  1  0  0  0  0
M  END
>  <Catalog ID>
Z1880959593

>  <PlateID>
1198308-R-SPFL-06

>  <Well>
B11

>  <MW (desalted)>
155.237

>  <ClogP>
0.267

>  <HBD>
1

>  <TPSA>
21.260

>  <RotBonds>
2

$$$$

            

 12 13  0  0  0  0            999 V2000
    0.7145   -0.4125    0.0000 C   0  0  0  0  0  0  0  0  0  0  0  0
    0.7145   -1.2375    0.0000 N   0  0  0  0  0  0  0  0  0  0  0  0
    1.3819   -1.7224    0.0000 N   0  0  0  0  0  0  0  0  0  0  0  0
    1.1270   -2.5070    0.0000 C   0  0  0  0  0  0  0  0  0  0  0  0
    0.3020   -2.5070    0.0000 C   0  0  0  0  0  0  0  0  0  0  0  0
    0.0470   -1.7224    0.0000 C   0  0  0  0  0  0  0  0  0  0  0  0
   -0.7376   -1.4675    0.0000 C   0  0  0  0  0  0  0  0  0  0  0  0
   -1.3507   -2.0195    0.0000 C   0  0  0  0  0  0  0  0  0  0  0  0
   -2.1353   -1.7646    0.0000 C   0  0  0  0  0  0  0  0  0  0  0  0
   -2.3068   -0.9576    0.0000 N   0  0  0  0  0  0  0  0  0  0  0  0
   -1.6937   -0.4056    0.0000 C   0  0  0  0  0  0  0  0  0  0  0  0
   -0.9091   -0.6605    0.0000 C   0  0  0  0  0  0  0  0  0  0  0  0
  1  2  1  0  0  0  0
  2  3  1  0  0  0  0
  3  4  2  0  0  0  0
  4  5  1  0  0  0  0
  5  6  2  0  0  0  0
  2  6  1  0  0  0  0
  6  7  1  0  0  0  0
  7  8  2  0  0  0  0
  8  9  1  0  0  0  0
  9 10  1  0  0  0  0
 10 11  1  0  0  0  0
 11 12  1  0  0  0  0
  7 12  1  0  0  0  0
M  END
>  <Catalog ID>
Z1183445941

>  <PlateID>
1198308-R-SPFL-06

>  <Well>
C02

>  <MW (desalted)>
163.220

>  <ClogP>
0.354

>  <HBD>
1

>  <TPSA>
29.850

>  <RotBonds>
1

$$$$

            

 13 13  0  0  0  0            999 V2000
    1.4289    2.4750    0.0000 C   0  0  0  0  0  0  0  0  0  0  0  0
    0.7145    2.0625    0.0000 O   0  0  0  0  0  0  0  0  0  0  0  0
    0.7145    1.2375    0.0000 C   0  0  0  0  0  0  0  0  0  0  0  0
    1.4289    0.8250    0.0000 C   0  0  0  0  0  0  0  0  0  0  0  0
    1.4289   -0.0000    0.0000 C   0  0  0  0  0  0  0  0  0  0  0  0
    0.7145   -0.4125    0.0000 C   0  0  0  0  0  0  0  0  0  0  0  0
    0.0000    0.0000    0.0000 C   0  0  0  0  0  0  0  0  0  0  0  0
    0.0000    0.8250    0.0000 N   0  0  0  0  0  0  0  0  0  0  0  0
   -0.7145   -0.4125    0.0000 C   0  0  0  0  0  0  0  0  0  0  0  0
   -1.1270    0.3020    0.0000 F   0  0  0  0  0  0  0  0  0  0  0  0
   -0.3020   -1.1270    0.0000 F   0  0  0  0  0  0  0  0  0  0  0  0
   -1.4289   -0.8250    0.0000 C   0  0  0  0  0  0  0  0  0  0  0  0
   -1.4289   -1.6500    0.0000 N   0  0  0  0  0  0  0  0  0  0  0  0
  1  2  1  0  0  0  0
  2  3  1  0  0  0  0
  3  4  2  0  0  0  0
  4  5  1  0  0  0  0
  5  6  2  0  0  0  0
  6  7  1  0  0  0  0
  7  8  2  0  0  0  0
  3  8  1  0  0  0  0
  7  9  1  0  0  0  0
  9 10  1  0  0  0  0
  9 11  1  0  0  0  0
  9 12  1  0  0  0  0
 12 13  1  0  0  0  0
M  END
>  <Catalog ID>
Z1255390033

>  <PlateID>
1198308-R-SPFL-06

>  <Well>
C03

>  <MW (desalted)>
188.175

>  <ClogP>
1.352

>  <HBD>
1

>  <TPSA>
48.140

>  <RotBonds>
3

$$$$

            

 12 13  0  0  0  0            999 V2000
    0.7145   -0.4125    0.0000 N   0  0  0  0  0  0  0  0  0  0  0  0
    0.7145   -1.2375    0.0000 C   0  0  0  0  0  0  0  0  0  0  0  0
    1.3819   -1.7224    0.0000 C   0  0  0  0  0  0  0  0  0  0  0  0
    1.1270   -2.5070    0.0000 C   0  0  0  0  0  0  0  0  0  0  0  0
    0.3020   -2.5070    0.0000 N   0  0  0  0  0  0  0  0  0  0  0  0
    0.0470   -1.7224    0.0000 C   0  0  0  0  0  0  0  0  0  0  0  0
   -0.1830   -3.1745    0.0000 C   0  0  0  0  0  0  0  0  0  0  0  0
    0.1526   -3.9282    0.0000 C   0  0  0  0  0  0  0  0  0  0  0  0
   -0.3323   -4.5956    0.0000 C   0  0  0  0  0  0  0  0  0  0  0  0
   -1.1528   -4.5094    0.0000 C   0  0  0  0  0  0  0  0  0  0  0  0
   -1.4884   -3.7557    0.0000 C   0  0  0  0  0  0  0  0  0  0  0  0
   -1.0034   -3.0882    0.0000 C   0  0  0  0  0  0  0  0  0  0  0  0
  1  2  1  0  0  0  0
  2  3  1  0  0  0  0
  3  4  1  0  0  0  0
  4  5  1  0  0  0  0
  5  6  1  0  0  0  0
  2  6  1  0  0  0  0
  5  7  1  0  0  0  0
  7  8  1  0  0  0  0
  8  9  1  0  0  0  0
  9 10  1  0  0  0  0
 10 11  1  0  0  0  0
 11 12  1  0  0  0  0
  7 12  1  0  0  0  0
M  END
>  <Catalog ID>
Z415647874

>  <PlateID>
1198308-R-SPFL-06

>  <Well>
C04

>  <MW (desalted)>
168.279

>  <ClogP>
1.505

>  <HBD>
1

>  <TPSA>
29.260

>  <RotBonds>
1

$$$$

            

 12 11  0  0  0  0            999 V2000
    0.0000    0.0000    0.0000 Cl  0  0  0  0  0  0  0  0  0  0  0  0
    4.6257    1.9875    0.0000 N   0  0  0  0  0  0  0  0  0  0  0  0
    3.9113    1.5750    0.0000 C   0  0  0  0  0  0  0  0  0  0  0  0
    3.9113    0.7500    0.0000 C   0  0  0  0  0  0  0  0  0  0  0  0
    4.6257    0.3375    0.0000 N   0  0  0  0  0  0  0  0  0  0  0  0
    4.6257   -0.4875    0.0000 C   0  0  0  0  0  0  0  0  0  0  0  0
    3.9113   -0.9000    0.0000 C   0  0  0  0  0  0  0  0  0  0  0  0
    3.1968   -0.4875    0.0000 C   0  0  0  0  0  0  0  0  0  0  0  0
    3.1968    0.3375    0.0000 N   0  0  0  0  0  0  0  0  0  0  0  0
    2.4823   -0.9000    0.0000 C   0  0  0  0  0  0  0  0  0  0  0  0
    2.4823   -1.7250    0.0000 F   0  0  0  0  0  0  0  0  0  0  0  0
    1.7679   -0.4875    0.0000 F   0  0  0  0  0  0  0  0  0  0  0  0
  2  3  1  0  0  0  0
  3  4  1  0  0  0  0
  4  5  2  0  0  0  0
  5  6  1  0  0  0  0
  6  7  2  0  0  0  0
  7  8  1  0  0  0  0
  8  9  2  0  0  0  0
  4  9  1  0  0  0  0
  8 10  1  0  0  0  0
 10 11  1  0  0  0  0
 10 12  1  0  0  0  0
M  END
>  <Catalog ID>
Z2092370865

>  <PlateID>
1198308-R-SPFL-06

>  <Well>
C05

>  <MW (desalted)>
159.137

>  <ClogP>
-1.165

>  <HBD>
1

>  <TPSA>
51.800

>  <RotBonds>
2

$$$$

            

 11 12  0  0  0  0            999 V2000
    1.1270   -2.5070    0.0000 C   0  0  0  0  0  0  0  0  0  0  0  0
    0.3020   -2.5070    0.0000 C   0  0  0  0  0  0  0  0  0  0  0  0
    0.0470   -1.7224    0.0000 N   0  0  0  0  0  0  0  0  0  0  0  0
    0.7145   -1.2375    0.0000 C   0  0  0  0  0  0  0  0  0  0  0  0
    1.3819   -1.7224    0.0000 C   0  0  0  0  0  0  0  0  0  0  0  0
    0.7145   -0.4125    0.0000 C   0  0  0  0  0  0  0  0  0  0  0  0
    0.0000    0.0000    0.0000 C   0  0  0  0  0  0  0  0  0  0  0  0
    0.0000    0.8250    0.0000 C   0  0  0  0  0  0  0  0  0  0  0  0
    0.7145    1.2375    0.0000 N   0  0  0  0  0  0  0  0  0  0  0  0
    1.4289    0.8250    0.0000 C   0  0  0  0  0  0  0  0  0  0  0  0
    1.4289   -0.0000    0.0000 C   0  0  0  0  0  0  0  0  0  0  0  0
  1  2  1  0  0  0  0
  2  3  1  0  0  0  0
  3  4  1  0  0  0  0
  4  5  1  0  0  0  0
  1  5  1  0  0  0  0
  4  6  1  0  0  0  0
  6  7  2  0  0  0  0
  7  8  1  0  0  0  0
  8  9  2  0  0  0  0
  9 10  1  0  0  0  0
 10 11  2  0  0  0  0
  6 11  1  0  0  0  0
M  END
>  <Catalog ID>
Z238920298

>  <PlateID>
1198308-R-SPFL-06

>  <Well>
C06

>  <MW (desalted)>
148.205

>  <ClogP>
0.437

>  <HBD>
1

>  <TPSA>
24.920

>  <RotBonds>
1

$$$$

            

 11 11  0  0  0  0            999 V2000
    0.0000    0.0000    0.0000 Cl  0  0  0  0  0  0  0  0  0  0  0  0
    2.9405   -1.9134    0.0000 N   0  0  0  0  0  0  0  0  0  0  0  0
    2.9405   -1.0884    0.0000 C   0  0  0  0  0  0  0  0  0  0  0  0
    2.3571   -0.5050    0.0000 C   0  0  0  0  0  0  0  0  0  0  0  0
    2.9405    0.0784    0.0000 C   0  0  0  0  0  0  0  0  0  0  0  0
    3.5239   -0.5050    0.0000 C   0  0  0  0  0  0  0  0  0  0  0  0
    2.9405    0.9034    0.0000 C   0  0  0  0  0  0  0  0  0  0  0  0
    2.9405    1.7284    0.0000 F   0  0  0  0  0  0  0  0  0  0  0  0
    3.7655    0.9034    0.0000 F   0  0  0  0  0  0  0  0  0  0  0  0
    2.1155    0.9034    0.0000 F   0  0  0  0  0  0  0  0  0  0  0  0
    3.0863   -0.5050    0.0000 C   0  0  0  0  0  0  0  0  0  0  0  0
  2  3  1  0  0  0  0
  3  4  1  0  0  0  0
  4  5  1  0  0  0  0
  5  6  1  0  0  0  0
  3  6  1  0  0  0  0
  5  7  1  0  0  0  0
  7  8  1  0  0  0  0
  7  9  1  0  0  0  0
  7 10  1  0  0  0  0
  3 11  1  0  0  0  0
  5 11  1  0  0  0  0
M  END
>  <Catalog ID>
Z2327651731

>  <PlateID>
1198308-R-SPFL-06

>  <Well>
C07

>  <MW (desalted)>
151.130

>  <ClogP>
0.247

>  <HBD>
1

>  <TPSA>
26.020

>  <RotBonds>
1

$$$$

            

 12 13  0  0  0  0            999 V2000
    4.7812    3.5854    0.0000 C   0  0  0  0  0  0  0  0  0  0  0  0
    4.0668    3.1729    0.0000 N   0  0  0  0  0  0  0  0  0  0  0  0
    4.0668    2.3479    0.0000 C   0  0  0  0  0  0  0  0  0  0  0  0
    3.3523    1.9354    0.0000 C   0  0  0  0  0  0  0  0  0  0  0  0
    3.3523    1.1104    0.0000 C   0  0  0  0  0  0  0  0  0  0  0  0
    2.6378    0.6979    0.0000 C   0  0  0  0  0  0  0  0  0  0  0  0
    1.9233    1.1104    0.0000 N   0  0  0  0  0  0  0  0  0  0  0  0
    1.1387    0.8555    0.0000 C   0  0  0  0  0  0  0  0  0  0  0  0
    0.6538    1.5229    0.0000 C   0  0  0  0  0  0  0  0  0  0  0  0
    1.1387    2.1904    0.0000 N   0  0  0  0  0  0  0  0  0  0  0  0
    1.9233    1.9354    0.0000 C   0  0  0  0  0  0  0  0  0  0  0  0
    2.6378    2.3479    0.0000 C   0  0  0  0  0  0  0  0  0  0  0  0
  1  2  1  0  0  0  0
  2  3  1  0  0  0  0
  3  4  1  0  0  0  0
  4  5  1  0  0  0  0
  5  6  1  0  0  0  0
  6  7  1  0  0  0  0
  7  8  1  0  0  0  0
  8  9  2  0  0  0  0
  9 10  1  0  0  0  0
 10 11  2  0  0  0  0
  7 11  1  0  0  0  0
 11 12  1  0  0  0  0
  4 12  1  0  0  0  0
M  END
>  <Catalog ID>
Z1753454907

>  <PlateID>
1198308-R-SPFL-06

>  <Well>
C08

>  <MW (desalted)>
165.236

>  <ClogP>
-0.392

>  <HBD>
1

>  <TPSA>
29.850

>  <RotBonds>
2

$$$$

            

 12 12  0  0  0  0            999 V2000
   -0.3020    2.2334    0.0000 O   0  0  0  0  0  0  0  0  0  0  0  0
    0.4125    1.8209    0.0000 C   0  0  0  0  0  0  0  0  0  0  0  0
    1.1270    2.2334    0.0000 O   0  0  0  0  0  0  0  0  0  0  0  0
    0.4125    0.9959    0.0000 C   0  0  0  0  0  0  0  0  0  0  0  0
    0.9959    0.4125    0.0000 C   0  0  0  0  0  0  0  0  0  0  0  0
    0.4125   -0.1709    0.0000 N   0  0  0  0  0  0  0  0  0  0  0  0
    0.4125   -0.9959    0.0000 C   0  0  0  0  0  0  0  0  0  0  0  0
    1.1270   -1.4084    0.0000 C   0  0  0  0  0  0  0  0  0  0  0  0
    1.8414   -1.8209    0.0000 F   0  0  0  0  0  0  0  0  0  0  0  0
    0.7145   -2.1228    0.0000 F   0  0  0  0  0  0  0  0  0  0  0  0
    1.5395   -0.6939    0.0000 F   0  0  0  0  0  0  0  0  0  0  0  0
   -0.1709    0.4125    0.0000 C   0  0  0  0  0  0  0  0  0  0  0  0
  1  2  1  0  0  0  0
  2  3  2  0  0  0  0
  2  4  1  0  0  0  0
  4  5  1  0  0  0  0
  5  6  1  0  0  0  0
  6  7  1  0  0  0  0
  7  8  1  0  0  0  0
  8  9  1  0  0  0  0
  8 10  1  0  0  0  0
  8 11  1  0  0  0  0
  6 12  1  0  0  0  0
  4 12  1  0  0  0  0
M  END
>  <Catalog ID>
Z1217192475

>  <PlateID>
1198308-R-SPFL-06

>  <Well>
C09

>  <MW (desalted)>
183.128

>  <ClogP>
-1.319

>  <HBD>
1

>  <TPSA>
40.540

>  <RotBonds>
3

$$$$

            

 10 11  0  0  0  0            999 V2000
    0.6249    6.3095    0.0000 C   0  0  0  0  0  0  0  0  0  0  0  0
    0.2893    5.5559    0.0000 N   0  0  0  0  0  0  0  0  0  0  0  0
    0.7742    4.8884    0.0000 C   0  0  0  0  0  0  0  0  0  0  0  0
    1.5992    4.8884    0.0000 C   0  0  0  0  0  0  0  0  0  0  0  0
    1.8542    4.1038    0.0000 C   0  0  0  0  0  0  0  0  0  0  0  0
    1.1867    3.6189    0.0000 N   0  0  0  0  0  0  0  0  0  0  0  0
    0.5193    4.1038    0.0000 C   0  0  0  0  0  0  0  0  0  0  0  0
    1.1867    2.7939    0.0000 C   0  0  0  0  0  0  0  0  0  0  0  0
    1.5992    2.0794    0.0000 C   0  0  0  0  0  0  0  0  0  0  0  0
    0.7742    2.0794    0.0000 C   0  0  0  0  0  0  0  0  0  0  0  0
  1  2  1  0  0  0  0
  2  3  1  0  0  0  0
  3  4  1  0  0  0  0
  4  5  1  0  0  0  0
  5  6  1  0  0  0  0
  6  7  1  0  0  0  0
  3  7  1  0  0  0  0
  6  8  1  0  0  0  0
  8  9  1  0  0  0  0
  9 10  1  0  0  0  0
  8 10  1  0  0  0  0
M  END
>  <Catalog ID>
Z415647782

>  <PlateID>
1198308-R-SPFL-06

>  <Well>
C10

>  <MW (desalted)>
140.226

>  <ClogP>
0.345

>  <HBD>
1

>  <TPSA>
15.270

>  <RotBonds>
2

$$$$

            

 11 11  0  0  0  0            999 V2000
    1.2822    2.3518    0.0000 N   0  0  0  0  0  0  0  0  0  0  0  0
    0.5678    1.9393    0.0000 C   0  0  0  0  0  0  0  0  0  0  0  0
    0.5678    1.1143    0.0000 C   0  0  0  0  0  0  0  0  0  0  0  0
    1.2352    0.6294    0.0000 N   0  0  0  0  0  0  0  0  0  0  0  0
    0.9803   -0.1553    0.0000 C   0  0  0  0  0  0  0  0  0  0  0  0
    0.1553   -0.1553    0.0000 C   0  0  0  0  0  0  0  0  0  0  0  0
   -0.0997    0.6294    0.0000 S   0  0  0  0  0  0  0  0  0  0  0  0
   -0.1467    2.3518    0.0000 C   0  0  0  0  0  0  0  0  0  0  0  0
   -0.8612    2.7643    0.0000 F   0  0  0  0  0  0  0  0  0  0  0  0
    0.2658    3.0663    0.0000 F   0  0  0  0  0  0  0  0  0  0  0  0
   -0.5592    1.6373    0.0000 F   0  0  0  0  0  0  0  0  0  0  0  0
  1  2  1  0  0  0  0
  2  3  1  0  0  0  0
  3  4  2  0  0  0  0
  4  5  1  0  0  0  0
  5  6  2  0  0  0  0
  6  7  1  0  0  0  0
  3  7  1  0  0  0  0
  2  8  1  0  0  0  0
  8  9  1  0  0  0  0
  8 10  1  0  0  0  0
  8 11  1  0  0  0  0
M  END
>  <Catalog ID>
Z1198723971

>  <PlateID>
1198308-R-SPFL-06

>  <Well>
C11

>  <MW (desalted)>
182.167

>  <ClogP>
0.211

>  <HBD>
1

>  <TPSA>
38.910

>  <RotBonds>
2

$$$$

            

 12 12  0  0  0  0            999 V2000
    0.0000    0.0000    0.0000 Cl  0  0  0  0  0  0  0  0  0  0  0  0
    2.3571    0.1061    0.0000 C   0  0  0  0  0  0  0  0  0  0  0  0
    2.9405   -0.4773    0.0000 C   0  0  0  0  0  0  0  0  0  0  0  0
    3.5239   -1.0607    0.0000 C   0  0  0  0  0  0  0  0  0  0  0  0
    2.9405   -1.6440    0.0000 N   0  0  0  0  0  0  0  0  0  0  0  0
    2.3571   -1.0607    0.0000 C   0  0  0  0  0  0  0  0  0  0  0  0
    3.5239    0.1061    0.0000 C   0  0  0  0  0  0  0  0  0  0  0  0
    3.3103    0.9030    0.0000 C   0  0  0  0  0  0  0  0  0  0  0  0
    3.8937    1.4863    0.0000 C   0  0  0  0  0  0  0  0  0  0  0  0
    4.6906    1.2728    0.0000 C   0  0  0  0  0  0  0  0  0  0  0  0
    4.9041    0.4759    0.0000 C   0  0  0  0  0  0  0  0  0  0  0  0
    4.3208   -0.1075    0.0000 C   0  0  0  0  0  0  0  0  0  0  0  0
  2  3  1  0  0  0  0
  3  4  1  0  0  0  0
  4  5  1  0  0  0  0
  5  6  1  0  0  0  0
  3  6  1  0  0  0  0
  3  7  1  0  0  0  0
  7  8  2  0  0  0  0
  8  9  1  0  0  0  0
  9 10  2  0  0  0  0
 10 11  1  0  0  0  0
 11 12  2  0  0  0  0
  7 12  1  0  0  0  0
M  END
>  <Catalog ID>
Z2143576561

>  <PlateID>
1198308-R-SPFL-06

>  <Well>
D02

>  <MW (desalted)>
147.217

>  <ClogP>
1.894

>  <HBD>
1

>  <TPSA>
12.030

>  <RotBonds>
1

$$$$

            

 11 12  0  0  0  0            999 V2000
    1.2564   -0.1802    0.0000 C   0  0  0  0  0  0  0  0  0  0  0  0
    1.2564   -1.0052    0.0000 N   0  0  0  0  0  0  0  0  0  0  0  0
    1.9239   -1.4901    0.0000 C   0  0  0  0  0  0  0  0  0  0  0  0
    1.6689   -2.2748    0.0000 C   0  0  0  0  0  0  0  0  0  0  0  0
    0.8439   -2.2748    0.0000 C   0  0  0  0  0  0  0  0  0  0  0  0
    0.5890   -1.4901    0.0000 N   0  0  0  0  0  0  0  0  0  0  0  0
    2.1538   -2.9422    0.0000 C   0  0  0  0  0  0  0  0  0  0  0  0
    2.9788   -2.9422    0.0000 C   0  0  0  0  0  0  0  0  0  0  0  0
    3.2338   -3.7268    0.0000 C   0  0  0  0  0  0  0  0  0  0  0  0
    2.5663   -4.2117    0.0000 C   0  0  0  0  0  0  0  0  0  0  0  0
    1.8989   -3.7268    0.0000 N   0  0  0  0  0  0  0  0  0  0  0  0
  1  2  1  0  0  0  0
  2  3  1  0  0  0  0
  3  4  2  0  0  0  0
  4  5  1  0  0  0  0
  5  6  2  0  0  0  0
  2  6  1  0  0  0  0
  4  7  1  0  0  0  0
  7  8  1  0  0  0  0
  8  9  1  0  0  0  0
  9 10  1  0  0  0  0
 10 11  1  0  0  0  0
  7 11  1  0  0  0  0
M  END
>  <Catalog ID>
Z1070241390

>  <PlateID>
1198308-R-SPFL-06

>  <Well>
D03

>  <MW (desalted)>
151.209

>  <ClogP>
0.049

>  <HBD>
1

>  <TPSA>
29.850

>  <RotBonds>
1

$$$$

            

 11 12  0  0  0  0            999 V2000
    0.0768   -2.3215    0.0000 N   0  0  0  0  0  0  0  0  0  0  0  0
    0.8838   -2.1500    0.0000 C   0  0  0  0  0  0  0  0  0  0  0  0
    1.1387   -1.3654    0.0000 C   0  0  0  0  0  0  0  0  0  0  0  0
    0.6538   -0.6979    0.0000 N   0  0  0  0  0  0  0  0  0  0  0  0
    1.1387   -0.0305    0.0000 O   0  0  0  0  0  0  0  0  0  0  0  0
    1.9233   -0.2854    0.0000 C   0  0  0  0  0  0  0  0  0  0  0  0
    2.6378    0.1271    0.0000 C   0  0  0  0  0  0  0  0  0  0  0  0
    3.3523   -0.2854    0.0000 C   0  0  0  0  0  0  0  0  0  0  0  0
    3.3523   -1.1104    0.0000 C   0  0  0  0  0  0  0  0  0  0  0  0
    2.6378   -1.5229    0.0000 C   0  0  0  0  0  0  0  0  0  0  0  0
    1.9233   -1.1104    0.0000 C   0  0  0  0  0  0  0  0  0  0  0  0
  1  2  1  0  0  0  0
  2  3  1  0  0  0  0
  3  4  2  0  0  0  0
  4  5  1  0  0  0  0
  5  6  1  0  0  0  0
  6  7  1  0  0  0  0
  7  8  1  0  0  0  0
  8  9  1  0  0  0  0
  9 10  1  0  0  0  0
 10 11  1  0  0  0  0
  3 11  1  0  0  0  0
  6 11  2  0  0  0  0
M  END
>  <Catalog ID>
Z1198181556

>  <PlateID>
1198308-R-SPFL-06

>  <Well>
D04

>  <MW (desalted)>
152.194

>  <ClogP>
0.185

>  <HBD>
1

>  <TPSA>
52.050

>  <RotBonds>
1

$$$$

            

 11 11  0  0  0  0            999 V2000
    0.0000    0.0000    0.0000 Cl  0  0  0  0  0  0  0  0  0  0  0  0
    2.3322   -1.5774    0.0000 F   0  0  0  0  0  0  0  0  0  0  0  0
    2.5871   -0.7928    0.0000 C   0  0  0  0  0  0  0  0  0  0  0  0
    3.3717   -1.0477    0.0000 F   0  0  0  0  0  0  0  0  0  0  0  0
    1.8025   -0.5378    0.0000 F   0  0  0  0  0  0  0  0  0  0  0  0
    2.8421   -0.0082    0.0000 C   0  0  0  0  0  0  0  0  0  0  0  0
    2.3571    0.6593    0.0000 C   0  0  0  0  0  0  0  0  0  0  0  0
    2.8421    1.3267    0.0000 C   0  0  0  0  0  0  0  0  0  0  0  0
    3.0089    0.6593    0.0000 C   0  0  0  0  0  0  0  0  0  0  0  0
    3.6267    0.2468    0.0000 N   0  0  0  0  0  0  0  0  0  0  0  0
    3.6267    1.0718    0.0000 C   0  0  0  0  0  0  0  0  0  0  0  0
  2  3  1  0  0  0  0
  3  4  1  0  0  0  0
  3  5  1  0  0  0  0
  3  6  1  0  0  0  0
  6  7  1  0  0  0  0
  7  8  1  0  0  0  0
  8  9  1  0  0  0  0
  6  9  1  0  0  0  0
  6 10  1  0  0  0  0
 10 11  1  0  0  0  0
  8 11  1  0  0  0  0
M  END
>  <Catalog ID>
Z2286737486

>  <PlateID>
1198308-R-SPFL-06

>  <Well>
D05

>  <MW (desalted)>
151.130

>  <ClogP>
0.824

>  <HBD>
1

>  <TPSA>
12.030

>  <RotBonds>
1

$$$$

            

 10 10  0  0  0  0            999 V2000
   -0.8612    3.5893    0.0000 F   0  0  0  0  0  0  0  0  0  0  0  0
   -0.1467    3.1768    0.0000 C   0  0  0  0  0  0  0  0  0  0  0  0
    0.5678    3.5893    0.0000 F   0  0  0  0  0  0  0  0  0  0  0  0
   -0.1467    2.3518    0.0000 O   0  0  0  0  0  0  0  0  0  0  0  0
    0.5678    1.9393    0.0000 C   0  0  0  0  0  0  0  0  0  0  0  0
    0.5678    1.1143    0.0000 C   0  0  0  0  0  0  0  0  0  0  0  0
    1.2352    0.6294    0.0000 C   0  0  0  0  0  0  0  0  0  0  0  0
    0.9803   -0.1553    0.0000 C   0  0  0  0  0  0  0  0  0  0  0  0
    0.1553   -0.1553    0.0000 N   0  0  0  0  0  0  0  0  0  0  0  0
   -0.0997    0.6294    0.0000 C   0  0  0  0  0  0  0  0  0  0  0  0
  1  2  1  0  0  0  0
  2  3  1  0  0  0  0
  2  4  1  0  0  0  0
  4  5  1  0  0  0  0
  5  6  1  0  0  0  0
  6  7  1  0  0  0  0
  7  8  1  0  0  0  0
  8  9  1  0  0  0  0
  9 10  1  0  0  0  0
  6 10  1  0  0  0  0
M  END
>  <Catalog ID>
Z1761700771

>  <PlateID>
1198308-R-SPFL-06

>  <Well>
D06

>  <MW (desalted)>
151.154

>  <ClogP>
-0.070

>  <HBD>
1

>  <TPSA>
21.260

>  <RotBonds>
3

$$$$

            

 10 10  0  0  1  0            999 V2000
    0.5678    2.7643    0.0000 F   0  0  0  0  0  0  0  0  0  0  0  0
    0.5678    1.9393    0.0000 C   0  0  0  0  0  0  0  0  0  0  0  0
   -0.2572    1.9393    0.0000 F   0  0  0  0  0  0  0  0  0  0  0  0
    1.3928    1.9393    0.0000 F   0  0  0  0  0  0  0  0  0  0  0  0
    0.5678    1.1143    0.0000 C   0  0  2  0  0  0  0  0  0  0  0  0
    1.2352    0.6294    0.0000 C   0  0  0  0  0  0  0  0  0  0  0  0
    0.9803   -0.1553    0.0000 C   0  0  0  0  0  0  0  0  0  0  0  0
    0.1553   -0.1553    0.0000 C   0  0  0  0  0  0  0  0  0  0  0  0
   -0.3297   -0.8227    0.0000 O   0  0  0  0  0  0  0  0  0  0  0  0
   -0.0997    0.6294    0.0000 N   0  0  0  0  0  0  0  0  0  0  0  0
  1  2  1  0  0  0  0
  2  3  1  0  0  0  0
  2  4  1  0  0  0  0
  5  2  1  6  0  0  0
  5  6  1  0  0  0  0
  6  7  1  0  0  0  0
  7  8  1  0  0  0  0
  8  9  2  0  0  0  0
  8 10  1  0  0  0  0
  5 10  1  0  0  0  0
M  END
>  <Catalog ID>
Z1509338290

>  <PlateID>
1198308-R-SPFL-06

>  <Well>
D07

>  <MW (desalted)>
153.102

>  <ClogP>
-0.280

>  <HBD>
1

>  <TPSA>
29.100

>  <RotBonds>
1

$$$$

            

 12 13  0  0  0  0            999 V2000
    4.7812    3.5854    0.0000 C   0  0  0  0  0  0  0  0  0  0  0  0
    4.0668    3.1729    0.0000 N   0  0  0  0  0  0  0  0  0  0  0  0
    4.0668    2.3479    0.0000 C   0  0  0  0  0  0  0  0  0  0  0  0
    3.3523    1.9354    0.0000 C   0  0  0  0  0  0  0  0  0  0  0  0
    3.3523    1.1104    0.0000 C   0  0  0  0  0  0  0  0  0  0  0  0
    2.6378    0.6979    0.0000 C   0  0  0  0  0  0  0  0  0  0  0  0
    1.9233    1.1104    0.0000 C   0  0  0  0  0  0  0  0  0  0  0  0
    1.1387    0.8555    0.0000 N   0  0  0  0  0  0  0  0  0  0  0  0
    0.6538    1.5229    0.0000 C   0  0  0  0  0  0  0  0  0  0  0  0
    1.1387    2.1904    0.0000 C   0  0  0  0  0  0  0  0  0  0  0  0
    1.9233    1.9354    0.0000 N   0  0  0  0  0  0  0  0  0  0  0  0
    2.6378    2.3479    0.0000 C   0  0  0  0  0  0  0  0  0  0  0  0
  1  2  1  0  0  0  0
  2  3  1  0  0  0  0
  3  4  1  0  0  0  0
  4  5  1  0  0  0  0
  5  6  1  0  0  0  0
  6  7  1  0  0  0  0
  7  8  2  0  0  0  0
  8  9  1  0  0  0  0
  9 10  2  0  0  0  0
 10 11  1  0  0  0  0
  7 11  1  0  0  0  0
 11 12  1  0  0  0  0
  4 12  1  0  0  0  0
M  END
>  <Catalog ID>
Z1753454799

>  <PlateID>
1198308-R-SPFL-06

>  <Well>
D08

>  <MW (desalted)>
165.236

>  <ClogP>
-0.392

>  <HBD>
1

>  <TPSA>
29.850

>  <RotBonds>
2

$$$$

            

 12 13  0  0  0  0            999 V2000
   -0.2533   -0.6968    0.0000 N   0  0  0  0  0  0  0  0  0  0  0  0
    0.5436   -0.4833    0.0000 C   0  0  0  0  0  0  0  0  0  0  0  0
    1.1270   -1.0666    0.0000 C   0  0  0  0  0  0  0  0  0  0  0  0
    1.7103   -1.6500    0.0000 C   0  0  0  0  0  0  0  0  0  0  0  0
    1.1270   -2.2334    0.0000 C   0  0  0  0  0  0  0  0  0  0  0  0
    0.5436   -1.6500    0.0000 C   0  0  0  0  0  0  0  0  0  0  0  0
    1.7103   -0.4833    0.0000 C   0  0  0  0  0  0  0  0  0  0  0  0
    1.4968    0.3136    0.0000 C   0  0  0  0  0  0  0  0  0  0  0  0
    2.0802    0.8970    0.0000 C   0  0  0  0  0  0  0  0  0  0  0  0
    2.8771    0.6835    0.0000 C   0  0  0  0  0  0  0  0  0  0  0  0
    3.0906   -0.1134    0.0000 C   0  0  0  0  0  0  0  0  0  0  0  0
    2.5072   -0.6968    0.0000 N   0  0  0  0  0  0  0  0  0  0  0  0
  1  2  1  0  0  0  0
  2  3  1  0  0  0  0
  3  4  1  0  0  0  0
  4  5  1  0  0  0  0
  5  6  1  0  0  0  0
  3  6  1  0  0  0  0
  3  7  1  0  0  0  0
  7  8  2  0  0  0  0
  8  9  1  0  0  0  0
  9 10  2  0  0  0  0
 10 11  1  0  0  0  0
 11 12  2  0  0  0  0
  7 12  1  0  0  0  0
M  END
>  <Catalog ID>
Z2239077703

>  <PlateID>
1198308-R-SPFL-06

>  <Well>
D09

>  <MW (desalted)>
162.232

>  <ClogP>
0.929

>  <HBD>
1

>  <TPSA>
38.910

>  <RotBonds>
2

$$$$

            

 15 16  0  0  0  0            999 V2000
    0.7145   -0.4125    0.0000 C   0  0  0  0  0  0  0  0  0  0  0  0
    0.7145   -1.2375    0.0000 C   0  0  0  0  0  0  0  0  0  0  0  0
    1.3819   -1.7224    0.0000 C   0  0  0  0  0  0  0  0  0  0  0  0
    1.1270   -2.5070    0.0000 C   0  0  0  0  0  0  0  0  0  0  0  0
    1.6119   -3.1745    0.0000 C   0  0  0  0  0  0  0  0  0  0  0  0
    0.3020   -2.5070    0.0000 N   0  0  0  0  0  0  0  0  0  0  0  0
    0.0470   -1.7224    0.0000 N   0  0  0  0  0  0  0  0  0  0  0  0
   -0.1830   -3.1745    0.0000 C   0  0  0  0  0  0  0  0  0  0  0  0
    0.1526   -3.9282    0.0000 C   0  0  0  0  0  0  0  0  0  0  0  0
   -0.3323   -4.5956    0.0000 C   0  0  0  0  0  0  0  0  0  0  0  0
   -1.1528   -4.5094    0.0000 C   0  0  0  0  0  0  0  0  0  0  0  0
   -1.4884   -3.7557    0.0000 C   0  0  0  0  0  0  0  0  0  0  0  0
   -1.0034   -3.0882    0.0000 C   0  0  0  0  0  0  0  0  0  0  0  0
   -1.3390   -2.3346    0.0000 C   0  0  0  0  0  0  0  0  0  0  0  0
   -0.8541   -1.6671    0.0000 N   0  0  0  0  0  0  0  0  0  0  0  0
  1  2  1  0  0  0  0
  2  3  1  0  0  0  0
  3  4  2  0  0  0  0
  4  5  1  0  0  0  0
  4  6  1  0  0  0  0
  6  7  1  0  0  0  0
  2  7  2  0  0  0  0
  6  8  1  0  0  0  0
  8  9  2  0  0  0  0
  9 10  1  0  0  0  0
 10 11  2  0  0  0  0
 11 12  1  0  0  0  0
 12 13  2  0  0  0  0
  8 13  1  0  0  0  0
 13 14  1  0  0  0  0
 14 15  1  0  0  0  0
M  END
>  <Catalog ID>
Z335292904

>  <PlateID>
1198308-R-SPFL-06

>  <Well>
D10

>  <MW (desalted)>
201.268

>  <ClogP>
1.686

>  <HBD>
1

>  <TPSA>
43.840

>  <RotBonds>
2

$$$$

            

 10 11  0  0  0  0            999 V2000
    1.6689   -2.2748    0.0000 C   0  0  0  0  0  0  0  0  0  0  0  0
    0.8439   -2.2748    0.0000 C   0  0  0  0  0  0  0  0  0  0  0  0
    0.5890   -1.4901    0.0000 N   0  0  0  0  0  0  0  0  0  0  0  0
    1.2564   -1.0052    0.0000 C   0  0  0  0  0  0  0  0  0  0  0  0
    1.9239   -1.4901    0.0000 C   0  0  0  0  0  0  0  0  0  0  0  0
    1.2564   -0.1802    0.0000 C   0  0  0  0  0  0  0  0  0  0  0  0
    0.5890    0.3047    0.0000 C   0  0  0  0  0  0  0  0  0  0  0  0
    0.8439    1.0893    0.0000 C   0  0  0  0  0  0  0  0  0  0  0  0
    1.6689    1.0893    0.0000 S   0  0  0  0  0  0  0  0  0  0  0  0
    1.9239    0.3047    0.0000 C   0  0  0  0  0  0  0  0  0  0  0  0
  1  2  1  0  0  0  0
  2  3  1  0  0  0  0
  3  4  1  0  0  0  0
  4  5  1  0  0  0  0
  1  5  1  0  0  0  0
  4  6  1  0  0  0  0
  6  7  1  0  0  0  0
  7  8  2  0  0  0  0
  8  9  1  0  0  0  0
  9 10  1  0  0  0  0
  6 10  2  0  0  0  0
M  END
>  <Catalog ID>
Z281773898

>  <PlateID>
1198308-R-SPFL-06

>  <Well>
D11

>  <MW (desalted)>
153.245

>  <ClogP>
1.580

>  <HBD>
1

>  <TPSA>
12.030

>  <RotBonds>
1

$$$$

            

 17 16  0  0  1  0            999 V2000
    0.0000    0.0000    0.0000 Cl  0  0  0  0  0  0  0  0  0  0  0  0
    2.0036    0.0000    0.0000 Cl  0  0  0  0  0  0  0  0  0  0  0  0
   -2.3428   -5.0547    0.0000 C   0  0  0  0  0  0  0  0  0  0  0  0
   -1.5358   -4.8832    0.0000 C   0  0  0  0  0  0  0  0  0  0  0  0
   -0.9838   -5.4963    0.0000 C   0  0  0  0  0  0  0  0  0  0  0  0
   -1.2809   -4.0986    0.0000 C   0  0  0  0  0  0  0  0  0  0  0  0
   -0.4739   -3.9271    0.0000 C   0  0  2  0  0  0  0  0  0  0  0  0
    0.0781   -4.5402    0.0000 N   0  0  0  0  0  0  0  0  0  0  0  0
   -0.2190   -3.1424    0.0000 C   0  0  0  0  0  0  0  0  0  0  0  0
   -0.7039   -2.4750    0.0000 N   0  0  0  0  0  0  0  0  0  0  0  0
   -0.2190   -1.8076    0.0000 N   0  0  0  0  0  0  0  0  0  0  0  0
    0.5657   -2.0625    0.0000 C   0  0  0  0  0  0  0  0  0  0  0  0
    1.2801   -1.6500    0.0000 C   0  0  0  0  0  0  0  0  0  0  0  0
    1.9946   -2.0625    0.0000 C   0  0  0  0  0  0  0  0  0  0  0  0
    1.9946   -2.8875    0.0000 C   0  0  0  0  0  0  0  0  0  0  0  0
    1.2801   -3.3000    0.0000 C   0  0  0  0  0  0  0  0  0  0  0  0
    0.5657   -2.8875    0.0000 N   0  0  0  0  0  0  0  0  0  0  0  0
  3  4  1  0  0  0  0
  4  5  1  0  0  0  0
  4  6  1  0  0  0  0
  7  6  1  0  0  0  0
  7  8  1  1  0  0  0
  7  9  1  0  0  0  0
  9 10  2  0  0  0  0
 10 11  1  0  0  0  0
 11 12  2  0  0  0  0
 12 13  1  0  0  0  0
 13 14  2  0  0  0  0
 14 15  1  0  0  0  0
 15 16  2  0  0  0  0
 16 17  1  0  0  0  0
  9 17  1  0  0  0  0
 12 17  1  0  0  0  0
M  END
>  <Catalog ID>
Z2517097679

>  <PlateID>
1198308-R-SPFL-06

>  <Well>
E02

>  <MW (desalted)>
204.272

>  <ClogP>
1.028

>  <HBD>
1

>  <TPSA>
56.210

>  <RotBonds>
3

$$$$

            

 11 12  0  0  0  0            999 V2000
    1.1270   -0.1743    0.0000 N   0  0  0  0  0  0  0  0  0  0  0  0
    1.8414   -0.5868    0.0000 C   0  0  0  0  0  0  0  0  0  0  0  0
    1.8414   -1.4118    0.0000 C   0  0  0  0  0  0  0  0  0  0  0  0
    2.2539   -2.1263    0.0000 C   0  0  0  0  0  0  0  0  0  0  0  0
    1.4289   -2.1263    0.0000 C   0  0  0  0  0  0  0  0  0  0  0  0
    2.5559   -0.1743    0.0000 C   0  0  0  0  0  0  0  0  0  0  0  0
    2.5559    0.6507    0.0000 C   0  0  0  0  0  0  0  0  0  0  0  0
    3.2704    1.0632    0.0000 C   0  0  0  0  0  0  0  0  0  0  0  0
    3.9849    0.6507    0.0000 O   0  0  0  0  0  0  0  0  0  0  0  0
    3.9849   -0.1743    0.0000 C   0  0  0  0  0  0  0  0  0  0  0  0
    3.2704   -0.5868    0.0000 C   0  0  0  0  0  0  0  0  0  0  0  0
  1  2  1  0  0  0  0
  2  3  1  0  0  0  0
  3  4  1  0  0  0  0
  4  5  1  0  0  0  0
  3  5  1  0  0  0  0
  2  6  1  0  0  0  0
  6  7  1  0  0  0  0
  7  8  1  0  0  0  0
  8  9  1  0  0  0  0
  9 10  1  0  0  0  0
 10 11  1  0  0  0  0
  6 11  1  0  0  0  0
M  END
>  <Catalog ID>
Z1178490399

>  <PlateID>
1198308-R-SPFL-06

>  <Well>
E03

>  <MW (desalted)>
155.237

>  <ClogP>
0.340

>  <HBD>
1

>  <TPSA>
35.250

>  <RotBonds>
2

$$$$

            

 11 12  0  0  0  0            999 V2000
    0.7145    6.5292    0.0000 N   0  0  0  0  0  0  0  0  0  0  0  0
    0.7145    5.7042    0.0000 C   0  0  0  0  0  0  0  0  0  0  0  0
    1.4289    5.2917    0.0000 C   0  0  0  0  0  0  0  0  0  0  0  0
    1.4289    4.4667    0.0000 C   0  0  0  0  0  0  0  0  0  0  0  0
    0.7145    4.0542    0.0000 N   0  0  0  0  0  0  0  0  0  0  0  0
    0.0000    4.4667    0.0000 C   0  0  0  0  0  0  0  0  0  0  0  0
   -0.0000    5.2917    0.0000 C   0  0  0  0  0  0  0  0  0  0  0  0
    0.7145    3.2292    0.0000 C   0  0  0  0  0  0  0  0  0  0  0  0
    1.2978    2.6459    0.0000 C   0  0  0  0  0  0  0  0  0  0  0  0
    0.7145    2.0625    0.0000 C   0  0  0  0  0  0  0  0  0  0  0  0
    0.1311    2.6459    0.0000 C   0  0  0  0  0  0  0  0  0  0  0  0
  1  2  1  0  0  0  0
  2  3  1  0  0  0  0
  3  4  1  0  0  0  0
  4  5  1  0  0  0  0
  5  6  1  0  0  0  0
  6  7  1  0  0  0  0
  2  7  1  0  0  0  0
  5  8  1  0  0  0  0
  8  9  1  0  0  0  0
  9 10  1  0  0  0  0
 10 11  1  0  0  0  0
  8 11  1  0  0  0  0
M  END
>  <Catalog ID>
Z432093062

>  <PlateID>
1198308-R-SPFL-06

>  <Well>
E04

>  <MW (desalted)>
154.253

>  <ClogP>
0.047

>  <HBD>
1

>  <TPSA>
29.260

>  <RotBonds>
1

$$$$

            

 11 12  0  0  0  0            999 V2000
   -0.1712   -0.6979    0.0000 C   0  0  0  0  0  0  0  0  0  0  0  0
    0.6538   -0.6979    0.0000 C   0  0  0  0  0  0  0  0  0  0  0  0
    1.1387   -0.0305    0.0000 N   0  0  0  0  0  0  0  0  0  0  0  0
    1.9233   -0.2854    0.0000 C   0  0  0  0  0  0  0  0  0  0  0  0
    2.6378    0.1271    0.0000 C   0  0  0  0  0  0  0  0  0  0  0  0
    3.3523   -0.2854    0.0000 C   0  0  0  0  0  0  0  0  0  0  0  0
    3.3523   -1.1104    0.0000 C   0  0  0  0  0  0  0  0  0  0  0  0
    2.6378   -1.5229    0.0000 C   0  0  0  0  0  0  0  0  0  0  0  0
    2.6378   -2.3479    0.0000 N   0  0  0  0  0  0  0  0  0  0  0  0
    1.9233   -1.1104    0.0000 C   0  0  0  0  0  0  0  0  0  0  0  0
    1.1387   -1.3654    0.0000 S   0  0  0  0  0  0  0  0  0  0  0  0
  1  2  1  0  0  0  0
  2  3  2  0  0  0  0
  3  4  1  0  0  0  0
  4  5  1  0  0  0  0
  5  6  1  0  0  0  0
  6  7  1  0  0  0  0
  7  8  1  0  0  0  0
  8  9  1  0  0  0  0
  8 10  1  0  0  0  0
  4 10  2  0  0  0  0
 10 11  1  0  0  0  0
  2 11  1  0  0  0  0
M  END
>  <Catalog ID>
Z954279338

>  <PlateID>
1198308-R-SPFL-06

>  <Well>
E05

>  <MW (desalted)>
168.259

>  <ClogP>
0.910

>  <HBD>
1

>  <TPSA>
38.910

>  <RotBonds>
0

$$$$

            

 12 12  0  0  0  0            999 V2000
    1.4289    2.4750    0.0000 N   0  0  0  0  0  0  0  0  0  0  0  0
    0.7145    2.0625    0.0000 C   0  0  0  0  0  0  0  0  0  0  0  0
    0.7145    1.2375    0.0000 C   0  0  0  0  0  0  0  0  0  0  0  0
    1.4289    0.8250    0.0000 C   0  0  0  0  0  0  0  0  0  0  0  0
    1.4289   -0.0000    0.0000 C   0  0  0  0  0  0  0  0  0  0  0  0
    0.7145   -0.4125    0.0000 C   0  0  0  0  0  0  0  0  0  0  0  0
    0.0000    0.0000    0.0000 C   0  0  0  0  0  0  0  0  0  0  0  0
    0.0000    0.8250    0.0000 N   0  0  0  0  0  0  0  0  0  0  0  0
   -0.7145   -0.4125    0.0000 C   0  0  0  0  0  0  0  0  0  0  0  0
   -1.4289   -0.8250    0.0000 F   0  0  0  0  0  0  0  0  0  0  0  0
   -1.1270    0.3020    0.0000 F   0  0  0  0  0  0  0  0  0  0  0  0
   -0.3020   -1.1270    0.0000 F   0  0  0  0  0  0  0  0  0  0  0  0
  1  2  1  0  0  0  0
  2  3  1  0  0  0  0
  3  4  2  0  0  0  0
  4  5  1  0  0  0  0
  5  6  2  0  0  0  0
  6  7  1  0  0  0  0
  7  8  2  0  0  0  0
  3  8  1  0  0  0  0
  7  9  1  0  0  0  0
  9 10  1  0  0  0  0
  9 11  1  0  0  0  0
  9 12  1  0  0  0  0
M  END
>  <Catalog ID>
Z1198276261

>  <PlateID>
1198308-R-SPFL-06

>  <Well>
E06

>  <MW (desalted)>
176.139

>  <ClogP>
0.627

>  <HBD>
1

>  <TPSA>
38.910

>  <RotBonds>
2

$$$$

            

 11 12  0  0  0  0            999 V2000
    0.8838   -2.1500    0.0000 N   0  0  0  0  0  0  0  0  0  0  0  0
    1.1387   -1.3654    0.0000 C   0  0  0  0  0  0  0  0  0  0  0  0
    0.6538   -0.6979    0.0000 N   0  0  0  0  0  0  0  0  0  0  0  0
    1.1387   -0.0305    0.0000 C   0  0  0  0  0  0  0  0  0  0  0  0
    1.9233   -0.2854    0.0000 C   0  0  0  0  0  0  0  0  0  0  0  0
    2.6378    0.1271    0.0000 C   0  0  0  0  0  0  0  0  0  0  0  0
    3.3523   -0.2854    0.0000 C   0  0  0  0  0  0  0  0  0  0  0  0
    4.0668    0.1271    0.0000 Cl  0  0  0  0  0  0  0  0  0  0  0  0
    3.3523   -1.1104    0.0000 C   0  0  0  0  0  0  0  0  0  0  0  0
    2.6378   -1.5229    0.0000 C   0  0  0  0  0  0  0  0  0  0  0  0
    1.9233   -1.1104    0.0000 C   0  0  0  0  0  0  0  0  0  0  0  0
  1  2  1  0  0  0  0
  2  3  2  0  0  0  0
  3  4  1  0  0  0  0
  4  5  1  0  0  0  0
  5  6  2  0  0  0  0
  6  7  1  0  0  0  0
  7  8  1  0  0  0  0
  7  9  2  0  0  0  0
  9 10  1  0  0  0  0
 10 11  2  0  0  0  0
  2 11  1  0  0  0  0
  5 11  1  0  0  0  0
M  END
>  <Catalog ID>
Z2239077705

>  <PlateID>
1198308-R-SPFL-06

>  <Well>
E07

>  <MW (desalted)>
166.608

>  <ClogP>
1.169

>  <HBD>
1

>  <TPSA>
38.380

>  <RotBonds>
0

$$$$

            

 11 11  0  0  0  0            999 V2000
    1.2822    2.3518    0.0000 O   0  0  0  0  0  0  0  0  0  0  0  0
    0.5678    1.9393    0.0000 C   0  0  0  0  0  0  0  0  0  0  0  0
    0.5678    1.1143    0.0000 C   0  0  0  0  0  0  0  0  0  0  0  0
    1.2352    0.6294    0.0000 C   0  0  0  0  0  0  0  0  0  0  0  0
    0.9803   -0.1553    0.0000 N   0  0  0  0  0  0  0  0  0  0  0  0
    0.1553   -0.1553    0.0000 N   0  0  0  0  0  0  0  0  0  0  0  0
   -0.3297   -0.8227    0.0000 C   0  0  0  0  0  0  0  0  0  0  0  0
   -1.1501   -0.7365    0.0000 C   0  0  0  0  0  0  0  0  0  0  0  0
   -1.6351   -1.4039    0.0000 F   0  0  0  0  0  0  0  0  0  0  0  0
   -1.4857    0.0172    0.0000 F   0  0  0  0  0  0  0  0  0  0  0  0
   -0.0997    0.6294    0.0000 C   0  0  0  0  0  0  0  0  0  0  0  0
  1  2  1  0  0  0  0
  2  3  1  0  0  0  0
  3  4  1  0  0  0  0
  4  5  2  0  0  0  0
  5  6  1  0  0  0  0
  6  7  1  0  0  0  0
  7  8  1  0  0  0  0
  8  9  1  0  0  0  0
  8 10  1  0  0  0  0
  6 11  1  0  0  0  0
  3 11  2  0  0  0  0
M  END
>  <Catalog ID>
Z1008185362

>  <PlateID>
1198308-R-SPFL-06

>  <Well>
E08

>  <MW (desalted)>
162.137

>  <ClogP>
-0.206

>  <HBD>
1

>  <TPSA>
38.050

>  <RotBonds>
3

$$$$

            

 12 12  0  0  0  0            999 V2000
    0.7145    2.8875    0.0000 C   0  0  0  0  0  0  0  0  0  0  0  0
    0.7145    2.0625    0.0000 C   0  0  0  0  0  0  0  0  0  0  0  0
   -0.1105    2.0625    0.0000 F   0  0  0  0  0  0  0  0  0  0  0  0
    1.5395    2.0625    0.0000 F   0  0  0  0  0  0  0  0  0  0  0  0
    0.7145    1.2375    0.0000 C   0  0  0  0  0  0  0  0  0  0  0  0
    1.4289    0.8250    0.0000 C   0  0  0  0  0  0  0  0  0  0  0  0
    1.4289   -0.0000    0.0000 C   0  0  0  0  0  0  0  0  0  0  0  0
    0.7145   -0.4125    0.0000 C   0  0  0  0  0  0  0  0  0  0  0  0
    0.7145   -1.2375    0.0000 C   0  0  0  0  0  0  0  0  0  0  0  0
    1.4289   -1.6500    0.0000 N   0  0  0  0  0  0  0  0  0  0  0  0
    0.0000    0.0000    0.0000 C   0  0  0  0  0  0  0  0  0  0  0  0
    0.0000    0.8250    0.0000 C   0  0  0  0  0  0  0  0  0  0  0  0
  1  2  1  0  0  0  0
  2  3  1  0  0  0  0
  2  4  1  0  0  0  0
  2  5  1  0  0  0  0
  5  6  2  0  0  0  0
  6  7  1  0  0  0  0
  7  8  2  0  0  0  0
  8  9  1  0  0  0  0
  9 10  1  0  0  0  0
  8 11  1  0  0  0  0
 11 12  2  0  0  0  0
  5 12  1  0  0  0  0
M  END
>  <Catalog ID>
Z1262658153

>  <PlateID>
1198308-R-SPFL-06

>  <Well>
E09

>  <MW (desalted)>
171.187

>  <ClogP>
1.818

>  <HBD>
1

>  <TPSA>
26.020

>  <RotBonds>
2

$$$$

            

 11 12  0  0  0  0            999 V2000
    0.8838   -2.1500    0.0000 C   0  0  0  0  0  0  0  0  0  0  0  0
    1.1387   -1.3654    0.0000 N   0  0  0  0  0  0  0  0  0  0  0  0
    0.6538   -0.6979    0.0000 C   0  0  0  0  0  0  0  0  0  0  0  0
   -0.1712   -0.6979    0.0000 N   0  0  0  0  0  0  0  0  0  0  0  0
    1.1387   -0.0305    0.0000 N   0  0  0  0  0  0  0  0  0  0  0  0
    1.9233   -0.2854    0.0000 C   0  0  0  0  0  0  0  0  0  0  0  0
    2.6378    0.1271    0.0000 N   0  0  0  0  0  0  0  0  0  0  0  0
    3.3523   -0.2854    0.0000 C   0  0  0  0  0  0  0  0  0  0  0  0
    3.3523   -1.1104    0.0000 C   0  0  0  0  0  0  0  0  0  0  0  0
    2.6378   -1.5229    0.0000 C   0  0  0  0  0  0  0  0  0  0  0  0
    1.9233   -1.1104    0.0000 C   0  0  0  0  0  0  0  0  0  0  0  0
  1  2  1  0  0  0  0
  2  3  1  0  0  0  0
  3  4  1  0  0  0  0
  3  5  2  0  0  0  0
  5  6  1  0  0  0  0
  6  7  2  0  0  0  0
  7  8  1  0  0  0  0
  8  9  2  0  0  0  0
  9 10  1  0  0  0  0
 10 11  2  0  0  0  0
  2 11  1  0  0  0  0
  6 11  1  0  0  0  0
M  END
>  <Catalog ID>
Z1198163314

>  <PlateID>
1198308-R-SPFL-06

>  <Well>
E10

>  <MW (desalted)>
148.165

>  <ClogP>
0.404

>  <HBD>
1

>  <TPSA>
56.730

>  <RotBonds>
0

$$$$

            

 14 15  0  0  0  0            999 V2000
   -1.1153   -0.1550    0.0000 C   0  0  0  0  0  0  0  0  0  0  0  0
   -1.8297    0.2575    0.0000 N   0  0  0  0  0  0  0  0  0  0  0  0
   -2.5114   -0.2073    0.0000 C   0  0  0  0  0  0  0  0  0  0  0  0
   -3.2997    0.0359    0.0000 C   0  0  0  0  0  0  0  0  0  0  0  0
   -3.6011    0.8039    0.0000 C   0  0  0  0  0  0  0  0  0  0  0  0
   -3.1886    1.5183    0.0000 N   0  0  0  0  0  0  0  0  0  0  0  0
   -2.3729    1.6413    0.0000 C   0  0  0  0  0  0  0  0  0  0  0  0
   -1.7681    1.0802    0.0000 C   0  0  0  0  0  0  0  0  0  0  0  0
   -1.1153   -0.9800    0.0000 C   0  0  0  0  0  0  0  0  0  0  0  0
   -0.4008   -1.3925    0.0000 C   0  0  0  0  0  0  0  0  0  0  0  0
   -0.4008   -2.2175    0.0000 C   0  0  0  0  0  0  0  0  0  0  0  0
   -1.1153   -2.6300    0.0000 C   0  0  0  0  0  0  0  0  0  0  0  0
   -1.8297   -2.2175    0.0000 C   0  0  0  0  0  0  0  0  0  0  0  0
   -1.8297   -1.3925    0.0000 C   0  0  0  0  0  0  0  0  0  0  0  0
  1  2  1  0  0  0  0
  2  3  1  0  0  0  0
  3  4  1  0  0  0  0
  4  5  1  0  0  0  0
  5  6  1  0  0  0  0
  6  7  1  0  0  0  0
  7  8  1  0  0  0  0
  2  8  1  0  0  0  0
  1  9  1  0  0  0  0
  9 10  2  0  0  0  0
 10 11  1  0  0  0  0
 11 12  2  0  0  0  0
 12 13  1  0  0  0  0
 13 14  2  0  0  0  0
  9 14  1  0  0  0  0
M  END
>  <Catalog ID>
Z169852140

>  <PlateID>
1198308-R-SPFL-06

>  <Well>
E11

>  <MW (desalted)>
190.285

>  <ClogP>
1.872

>  <HBD>
1

>  <TPSA>
15.270

>  <RotBonds>
2

$$$$

            

 12 13  0  0  0  0            999 V2000
    0.0000   -2.4750    0.0000 C   0  0  0  0  0  0  0  0  0  0  0  0
    0.0000   -1.6500    0.0000 O   0  0  0  0  0  0  0  0  0  0  0  0
    0.7145   -1.2375    0.0000 C   0  0  0  0  0  0  0  0  0  0  0  0
    0.7145   -0.4125    0.0000 C   0  0  0  0  0  0  0  0  0  0  0  0
    1.4289    0.0000    0.0000 C   0  0  0  0  0  0  0  0  0  0  0  0
    2.1434   -0.4125    0.0000 C   0  0  0  0  0  0  0  0  0  0  0  0
    2.8579    0.0000    0.0000 N   0  0  0  0  0  0  0  0  0  0  0  0
    3.5724   -0.4125    0.0000 C   0  0  0  0  0  0  0  0  0  0  0  0
    3.5724   -1.2375    0.0000 C   0  0  0  0  0  0  0  0  0  0  0  0
    2.8579   -1.6500    0.0000 C   0  0  0  0  0  0  0  0  0  0  0  0
    2.1434   -1.2375    0.0000 C   0  0  0  0  0  0  0  0  0  0  0  0
    1.4289   -1.6500    0.0000 C   0  0  0  0  0  0  0  0  0  0  0  0
  1  2  1  0  0  0  0
  2  3  1  0  0  0  0
  3  4  1  0  0  0  0
  4  5  2  0  0  0  0
  5  6  1  0  0  0  0
  6  7  2  0  0  0  0
  7  8  1  0  0  0  0
  8  9  2  0  0  0  0
  9 10  1  0  0  0  0
 10 11  2  0  0  0  0
  6 11  1  0  0  0  0
 11 12  1  0  0  0  0
  3 12  2  0  0  0  0
M  END
>  <Catalog ID>
Z166628264

>  <PlateID>
1198308-R-SPFL-06

>  <Well>
F02

>  <MW (desalted)>
159.185

>  <ClogP>
2.324

>  <HBD>
0

>  <TPSA>
22.120

>  <RotBonds>
1

$$$$

            

 11 12  0  0  0  0            999 V2000
   -0.6078    4.3527    0.0000 C   0  0  0  0  0  0  0  0  0  0  0  0
   -0.6078    3.5277    0.0000 C   0  0  0  0  0  0  0  0  0  0  0  0
   -1.3222    3.1152    0.0000 C   0  0  0  0  0  0  0  0  0  0  0  0
   -2.0367    3.5277    0.0000 C   0  0  0  0  0  0  0  0  0  0  0  0
   -2.0367    4.3527    0.0000 C   0  0  0  0  0  0  0  0  0  0  0  0
   -1.3222    4.7652    0.0000 N   0  0  0  0  0  0  0  0  0  0  0  0
   -1.3222    2.2902    0.0000 C   0  0  0  0  0  0  0  0  0  0  0  0
   -0.6548    1.8053    0.0000 C   0  0  0  0  0  0  0  0  0  0  0  0
   -0.9097    1.0206    0.0000 C   0  0  0  0  0  0  0  0  0  0  0  0
   -1.7347    1.0206    0.0000 C   0  0  0  0  0  0  0  0  0  0  0  0
   -1.9897    1.8053    0.0000 O   0  0  0  0  0  0  0  0  0  0  0  0
  1  2  1  0  0  0  0
  2  3  1  0  0  0  0
  3  4  1  0  0  0  0
  4  5  1  0  0  0  0
  5  6  1  0  0  0  0
  1  6  1  0  0  0  0
  3  7  1  0  0  0  0
  7  8  2  0  0  0  0
  8  9  1  0  0  0  0
  9 10  2  0  0  0  0
 10 11  1  0  0  0  0
  7 11  1  0  0  0  0
M  END
>  <Catalog ID>
Z1179936303

>  <PlateID>
1198308-R-SPFL-06

>  <Well>
F03

>  <MW (desalted)>
151.206

>  <ClogP>
1.519

>  <HBD>
1

>  <TPSA>
25.170

>  <RotBonds>
1

$$$$

            

 10 10  0  0  0  0            999 V2000
    0.0000    2.4750    0.0000 C   0  0  0  0  0  0  0  0  0  0  0  0
    0.7145    2.0625    0.0000 C   0  0  0  0  0  0  0  0  0  0  0  0
    1.4289    2.4750    0.0000 N   0  0  0  0  0  0  0  0  0  0  0  0
    0.7145    1.2375    0.0000 C   0  0  0  0  0  0  0  0  0  0  0  0
    1.4289    0.8250    0.0000 C   0  0  0  0  0  0  0  0  0  0  0  0
    1.4289   -0.0000    0.0000 C   0  0  0  0  0  0  0  0  0  0  0  0
    0.7145   -0.4125    0.0000 N   0  0  0  0  0  0  0  0  0  0  0  0
    0.0000    0.0000    0.0000 C   0  0  0  0  0  0  0  0  0  0  0  0
    0.0000    0.8250    0.0000 C   0  0  0  0  0  0  0  0  0  0  0  0
   -0.7145    1.2375    0.0000 F   0  0  0  0  0  0  0  0  0  0  0  0
  1  2  1  0  0  0  0
  2  3  1  0  0  0  0
  2  4  1  0  0  0  0
  4  5  2  0  0  0  0
  5  6  1  0  0  0  0
  6  7  2  0  0  0  0
  7  8  1  0  0  0  0
  8  9  2  0  0  0  0
  4  9  1  0  0  0  0
  9 10  1  0  0  0  0
M  END
>  <Catalog ID>
Z1198737228

>  <PlateID>
1198308-R-SPFL-06

>  <Well>
F04

>  <MW (desalted)>
140.158

>  <ClogP>
0.133

>  <HBD>
1

>  <TPSA>
38.910

>  <RotBonds>
1

$$$$

            

 16 16  0  0  0  0            999 V2000
    0.0000    0.0000    0.0000 Cl  0  0  0  0  0  0  0  0  0  0  0  0
    1.8857    0.0689    0.0000 O   0  0  0  0  0  0  0  0  0  0  0  0
    2.6002    0.4814    0.0000 C   0  0  0  0  0  0  0  0  0  0  0  0
    2.6002    1.3064    0.0000 O   0  0  0  0  0  0  0  0  0  0  0  0
    3.3147    0.0689    0.0000 C   0  0  0  0  0  0  0  0  0  0  0  0
    3.3147   -0.7561    0.0000 C   0  0  0  0  0  0  0  0  0  0  0  0
    3.9821   -1.2410    0.0000 C   0  0  0  0  0  0  0  0  0  0  0  0
    3.7272   -2.0256    0.0000 C   0  0  0  0  0  0  0  0  0  0  0  0
    2.9022   -2.0256    0.0000 C   0  0  0  0  0  0  0  0  0  0  0  0
    2.6472   -1.2410    0.0000 C   0  0  0  0  0  0  0  0  0  0  0  0
    4.0291    0.4814    0.0000 C   0  0  0  0  0  0  0  0  0  0  0  0
    4.0291    1.3064    0.0000 C   0  0  0  0  0  0  0  0  0  0  0  0
    4.7436    1.7189    0.0000 C   0  0  0  0  0  0  0  0  0  0  0  0
    5.4581    1.3064    0.0000 N   0  0  0  0  0  0  0  0  0  0  0  0
    5.4581    0.4814    0.0000 C   0  0  0  0  0  0  0  0  0  0  0  0
    4.7436    0.0689    0.0000 C   0  0  0  0  0  0  0  0  0  0  0  0
  2  3  1  0  0  0  0
  3  4  2  0  0  0  0
  3  5  1  0  0  0  0
  5  6  1  0  0  0  0
  6  7  1  0  0  0  0
  7  8  1  0  0  0  0
  8  9  1  0  0  0  0
  9 10  1  0  0  0  0
  6 10  1  0  0  0  0
  5 11  1  0  0  0  0
 11 12  2  0  0  0  0
 12 13  1  0  0  0  0
 13 14  2  0  0  0  0
 14 15  1  0  0  0  0
 15 16  2  0  0  0  0
 11 16  1  0  0  0  0
M  END
>  <Catalog ID>
Z2509599652

>  <PlateID>
1198308-R-SPFL-06

>  <Well>
F05

>  <MW (desalted)>
205.253

>  <ClogP>
1.788

>  <HBD>
1

>  <TPSA>
50.190

>  <RotBonds>
3

$$$$

            

 12 12  0  0  0  0            999 V2000
    2.0572    1.7262    0.0000 C   0  0  0  0  0  0  0  0  0  0  0  0
    1.2448    1.8695    0.0000 O   0  0  0  0  0  0  0  0  0  0  0  0
    0.7145    1.2375    0.0000 C   0  0  0  0  0  0  0  0  0  0  0  0
    0.1842    1.8695    0.0000 C   0  0  0  0  0  0  0  0  0  0  0  0
   -0.6283    1.7262    0.0000 N   0  0  0  0  0  0  0  0  0  0  0  0
    1.4289    0.8250    0.0000 C   0  0  0  0  0  0  0  0  0  0  0  0
    1.4289   -0.0000    0.0000 C   0  0  0  0  0  0  0  0  0  0  0  0
    0.7145   -0.4125    0.0000 C   0  0  0  0  0  0  0  0  0  0  0  0
    1.2448   -1.0445    0.0000 F   0  0  0  0  0  0  0  0  0  0  0  0
    0.1842   -1.0445    0.0000 F   0  0  0  0  0  0  0  0  0  0  0  0
    0.0000    0.0000    0.0000 C   0  0  0  0  0  0  0  0  0  0  0  0
    0.0000    0.8250    0.0000 C   0  0  0  0  0  0  0  0  0  0  0  0
  1  2  1  0  0  0  0
  2  3  1  0  0  0  0
  3  4  1  0  0  0  0
  4  5  1  0  0  0  0
  3  6  1  0  0  0  0
  6  7  1  0  0  0  0
  7  8  1  0  0  0  0
  8  9  1  0  0  0  0
  8 10  1  0  0  0  0
  8 11  1  0  0  0  0
 11 12  1  0  0  0  0
  3 12  1  0  0  0  0
M  END
>  <Catalog ID>
Z2510971782

>  <PlateID>
1198308-R-SPFL-06

>  <Well>
F06

>  <MW (desalted)>
179.208

>  <ClogP>
0.875

>  <HBD>
1

>  <TPSA>
35.250

>  <RotBonds>
2

$$$$

            

 12 12  0  0  0  0            999 V2000
    0.0000    0.0000    0.0000 Cl  0  0  0  0  0  0  0  0  0  0  0  0
    2.9405    0.0621    0.0000 C   0  0  0  0  0  0  0  0  0  0  0  0
    2.9405   -0.7629    0.0000 C   0  0  0  0  0  0  0  0  0  0  0  0
    3.5239   -1.3462    0.0000 C   0  0  0  0  0  0  0  0  0  0  0  0
    2.9405   -1.9296    0.0000 N   0  0  0  0  0  0  0  0  0  0  0  0
    2.3571   -1.3462    0.0000 C   0  0  0  0  0  0  0  0  0  0  0  0
    3.6550    0.4746    0.0000 C   0  0  0  0  0  0  0  0  0  0  0  0
    3.6550    1.2996    0.0000 C   0  0  0  0  0  0  0  0  0  0  0  0
    4.3694    1.7121    0.0000 C   0  0  0  0  0  0  0  0  0  0  0  0
    5.0839    1.2996    0.0000 C   0  0  0  0  0  0  0  0  0  0  0  0
    5.0839    0.4746    0.0000 C   0  0  0  0  0  0  0  0  0  0  0  0
    4.3694    0.0621    0.0000 C   0  0  0  0  0  0  0  0  0  0  0  0
  2  3  1  0  0  0  0
  3  4  1  0  0  0  0
  4  5  1  0  0  0  0
  5  6  1  0  0  0  0
  3  6  1  0  0  0  0
  2  7  1  0  0  0  0
  7  8  2  0  0  0  0
  8  9  1  0  0  0  0
  9 10  2  0  0  0  0
 10 11  1  0  0  0  0
 11 12  2  0  0  0  0
  7 12  1  0  0  0  0
M  END
>  <Catalog ID>
Z1270312105

>  <PlateID>
1198308-R-SPFL-06

>  <Well>
F07

>  <MW (desalted)>
147.217

>  <ClogP>
1.754

>  <HBD>
1

>  <TPSA>
12.030

>  <RotBonds>
2

$$$$

            

 13 14  0  0  0  0            999 V2000
    0.0000   -2.4750    0.0000 N   0  0  0  0  0  0  0  0  0  0  0  0
    0.0000   -1.6500    0.0000 C   0  0  0  0  0  0  0  0  0  0  0  0
    0.7145   -1.2375    0.0000 C   0  0  0  0  0  0  0  0  0  0  0  0
    0.7145   -0.4125    0.0000 C   0  0  0  0  0  0  0  0  0  0  0  0
    1.4289    0.0000    0.0000 N   0  0  0  0  0  0  0  0  0  0  0  0
    2.1434   -0.4125    0.0000 C   0  0  0  0  0  0  0  0  0  0  0  0
    2.8579    0.0000    0.0000 C   0  0  0  0  0  0  0  0  0  0  0  0
    2.8579    0.8250    0.0000 F   0  0  0  0  0  0  0  0  0  0  0  0
    3.5724   -0.4125    0.0000 C   0  0  0  0  0  0  0  0  0  0  0  0
    3.5724   -1.2375    0.0000 C   0  0  0  0  0  0  0  0  0  0  0  0
    2.8579   -1.6500    0.0000 C   0  0  0  0  0  0  0  0  0  0  0  0
    2.1434   -1.2375    0.0000 C   0  0  0  0  0  0  0  0  0  0  0  0
    1.4289   -1.6500    0.0000 C   0  0  0  0  0  0  0  0  0  0  0  0
  1  2  1  0  0  0  0
  2  3  1  0  0  0  0
  3  4  1  0  0  0  0
  4  5  2  0  0  0  0
  5  6  1  0  0  0  0
  6  7  2  0  0  0  0
  7  8  1  0  0  0  0
  7  9  1  0  0  0  0
  9 10  2  0  0  0  0
 10 11  1  0  0  0  0
 11 12  2  0  0  0  0
  6 12  1  0  0  0  0
 12 13  1  0  0  0  0
  3 13  2  0  0  0  0
M  END
>  <Catalog ID>
Z1251356292

>  <PlateID>
1198308-R-SPFL-06

>  <Well>
F08

>  <MW (desalted)>
176.190

>  <ClogP>
1.187

>  <HBD>
1

>  <TPSA>
38.910

>  <RotBonds>
1

$$$$

            

 16 17  0  0  0  0            999 V2000
    1.4289    0.0000    0.0000 N   0  0  0  0  0  0  0  0  0  0  0  0
    2.1434   -0.4125    0.0000 C   0  0  0  0  0  0  0  0  0  0  0  0
    2.1434   -1.2375    0.0000 C   0  0  0  0  0  0  0  0  0  0  0  0
    2.8579   -1.6500    0.0000 C   0  0  0  0  0  0  0  0  0  0  0  0
    2.8579   -2.4750    0.0000 C   0  0  0  0  0  0  0  0  0  0  0  0
    3.5724   -2.8875    0.0000 O   0  0  0  0  0  0  0  0  0  0  0  0
    3.5724   -3.7125    0.0000 C   0  0  0  0  0  0  0  0  0  0  0  0
    4.2868   -4.1250    0.0000 C   0  0  0  0  0  0  0  0  0  0  0  0
    4.2868   -4.9500    0.0000 C   0  0  0  0  0  0  0  0  0  0  0  0
    3.5724   -5.3625    0.0000 C   0  0  0  0  0  0  0  0  0  0  0  0
    2.8579   -4.9500    0.0000 C   0  0  0  0  0  0  0  0  0  0  0  0
    2.1434   -5.3625    0.0000 F   0  0  0  0  0  0  0  0  0  0  0  0
    2.8579   -4.1250    0.0000 C   0  0  0  0  0  0  0  0  0  0  0  0
    2.1434   -2.8875    0.0000 C   0  0  0  0  0  0  0  0  0  0  0  0
    1.4289   -2.4750    0.0000 C   0  0  0  0  0  0  0  0  0  0  0  0
    1.4289   -1.6500    0.0000 N   0  0  0  0  0  0  0  0  0  0  0  0
  1  2  1  0  0  0  0
  2  3  1  0  0  0  0
  3  4  2  0  0  0  0
  4  5  1  0  0  0  0
  5  6  1  0  0  0  0
  6  7  1  0  0  0  0
  7  8  2  0  0  0  0
  8  9  1  0  0  0  0
  9 10  2  0  0  0  0
 10 11  1  0  0  0  0
 11 12  1  0  0  0  0
 11 13  2  0  0  0  0
  7 13  1  0  0  0  0
  5 14  2  0  0  0  0
 14 15  1  0  0  0  0
 15 16  2  0  0  0  0
  3 16  1  0  0  0  0
M  END
>  <Catalog ID>
Z971131044

>  <PlateID>
1198308-R-SPFL-06

>  <Well>
F09

>  <MW (desalted)>
218.227

>  <ClogP>
1.838

>  <HBD>
1

>  <TPSA>
48.140

>  <RotBonds>
3

$$$$

            

 11 10  0  0  0  0            999 V2000
    0.0000    0.0000    0.0000 Cl  0  0  0  0  0  0  0  0  0  0  0  0
    3.5239    0.0682    0.0000 C   0  0  0  0  0  0  0  0  0  0  0  0
    2.9405   -0.5151    0.0000 C   0  0  0  0  0  0  0  0  0  0  0  0
    2.3571    0.0682    0.0000 C   0  0  0  0  0  0  0  0  0  0  0  0
    2.5707    0.8651    0.0000 C   0  0  0  0  0  0  0  0  0  0  0  0
    2.7842    1.6620    0.0000 F   0  0  0  0  0  0  0  0  0  0  0  0
    1.7738    1.0787    0.0000 F   0  0  0  0  0  0  0  0  0  0  0  0
    3.3676    0.6516    0.0000 F   0  0  0  0  0  0  0  0  0  0  0  0
    3.5239   -1.0985    0.0000 C   0  0  0  0  0  0  0  0  0  0  0  0
    2.9405   -1.6818    0.0000 N   0  0  0  0  0  0  0  0  0  0  0  0
    2.3571   -1.0985    0.0000 C   0  0  0  0  0  0  0  0  0  0  0  0
  2  3  1  0  0  0  0
  3  4  1  0  0  0  0
  4  5  1  0  0  0  0
  5  6  1  0  0  0  0
  5  7  1  0  0  0  0
  5  8  1  0  0  0  0
  3  9  1  0  0  0  0
  9 10  1  0  0  0  0
 10 11  1  0  0  0  0
  3 11  1  0  0  0  0
M  END
>  <Catalog ID>
Z2239020737

>  <PlateID>
1198308-R-SPFL-06

>  <Well>
F10

>  <MW (desalted)>
153.146

>  <ClogP>
1.048

>  <HBD>
1

>  <TPSA>
12.030

>  <RotBonds>
2

$$$$

            

 13 13  0  0  0  0            999 V2000
    0.0000    0.0000    0.0000 Cl  0  0  0  0  0  0  0  0  0  0  0  0
    3.3147   -0.5962    0.0000 C   0  0  0  0  0  0  0  0  0  0  0  0
    2.6002   -0.1837    0.0000 O   0  0  0  0  0  0  0  0  0  0  0  0
    2.6002    0.6413    0.0000 C   0  0  0  0  0  0  0  0  0  0  0  0
    1.8857    1.0538    0.0000 C   0  0  0  0  0  0  0  0  0  0  0  0
    1.8857    1.8788    0.0000 C   0  0  0  0  0  0  0  0  0  0  0  0
    2.6002    2.2913    0.0000 C   0  0  0  0  0  0  0  0  0  0  0  0
    3.3147    1.8788    0.0000 C   0  0  0  0  0  0  0  0  0  0  0  0
    3.3147    1.0538    0.0000 C   0  0  0  0  0  0  0  0  0  0  0  0
    3.3147   -1.4212    0.0000 C   0  0  0  0  0  0  0  0  0  0  0  0
    3.8980   -2.0045    0.0000 C   0  0  0  0  0  0  0  0  0  0  0  0
    3.3147   -2.5879    0.0000 N   0  0  0  0  0  0  0  0  0  0  0  0
    2.7313   -2.0045    0.0000 C   0  0  0  0  0  0  0  0  0  0  0  0
  2  3  1  0  0  0  0
  3  4  1  0  0  0  0
  4  5  2  0  0  0  0
  5  6  1  0  0  0  0
  6  7  2  0  0  0  0
  7  8  1  0  0  0  0
  8  9  2  0  0  0  0
  4  9  1  0  0  0  0
  2 10  1  0  0  0  0
 10 11  1  0  0  0  0
 11 12  1  0  0  0  0
 12 13  1  0  0  0  0
 10 13  1  0  0  0  0
M  END
>  <Catalog ID>
Z2379765279

>  <PlateID>
1198308-R-SPFL-06

>  <Well>
F11

>  <MW (desalted)>
163.216

>  <ClogP>
1.888

>  <HBD>
1

>  <TPSA>
21.260

>  <RotBonds>
3

$$$$

            

 12 13  0  0  0  0            999 V2000
    3.4479    1.4620    0.0000 O   0  0  0  0  0  0  0  0  0  0  0  0
    3.6315    0.6577    0.0000 C   0  0  0  0  0  0  0  0  0  0  0  0
    4.4358    0.4742    0.0000 N   0  0  0  0  0  0  0  0  0  0  0  0
    4.7938   -0.2691    0.0000 C   0  0  0  0  0  0  0  0  0  0  0  0
    4.4358   -1.0124    0.0000 C   0  0  0  0  0  0  0  0  0  0  0  0
    3.6315   -1.1960    0.0000 N   0  0  0  0  0  0  0  0  0  0  0  0
    2.9865   -0.6816    0.0000 C   0  0  0  0  0  0  0  0  0  0  0  0
    2.2720   -1.0941    0.0000 C   0  0  0  0  0  0  0  0  0  0  0  0
    1.5575   -0.6816    0.0000 C   0  0  0  0  0  0  0  0  0  0  0  0
    1.5575    0.1434    0.0000 C   0  0  0  0  0  0  0  0  0  0  0  0
    2.2720    0.5559    0.0000 C   0  0  0  0  0  0  0  0  0  0  0  0
    2.9865    0.1434    0.0000 C   0  0  0  0  0  0  0  0  0  0  0  0
  1  2  2  0  0  0  0
  2  3  1  0  0  0  0
  3  4  1  0  0  0  0
  4  5  1  0  0  0  0
  5  6  1  0  0  0  0
  6  7  1  0  0  0  0
  7  8  2  0  0  0  0
  8  9  1  0  0  0  0
  9 10  2  0  0  0  0
 10 11  1  0  0  0  0
 11 12  2  0  0  0  0
  2 12  1  0  0  0  0
  7 12  1  0  0  0  0
M  END
>  <Catalog ID>
Z1198232438

>  <PlateID>
1198308-R-SPFL-06

>  <Well>
G02

>  <MW (desalted)>
162.189

>  <ClogP>
0.648

>  <HBD>
2

>  <TPSA>
41.130

>  <RotBonds>
0

$$$$

            

 12 13  0  0  0  0            999 V2000
    1.6242   -2.5687    0.0000 C   0  0  0  0  0  0  0  0  0  0  0  0
    1.3693   -1.7840    0.0000 C   0  0  0  0  0  0  0  0  0  0  0  0
    2.0367   -1.2991    0.0000 C   0  0  0  0  0  0  0  0  0  0  0  0
    2.7041   -1.7840    0.0000 C   0  0  0  0  0  0  0  0  0  0  0  0
    2.4492   -2.5687    0.0000 N   0  0  0  0  0  0  0  0  0  0  0  0
    2.0367   -0.4741    0.0000 O   0  0  0  0  0  0  0  0  0  0  0  0
    2.7512   -0.0616    0.0000 C   0  0  0  0  0  0  0  0  0  0  0  0
    2.7512    0.7634    0.0000 C   0  0  0  0  0  0  0  0  0  0  0  0
    3.4656    1.1759    0.0000 C   0  0  0  0  0  0  0  0  0  0  0  0
    4.1801    0.7634    0.0000 C   0  0  0  0  0  0  0  0  0  0  0  0
    4.1801   -0.0616    0.0000 C   0  0  0  0  0  0  0  0  0  0  0  0
    3.4656   -0.4741    0.0000 N   0  0  0  0  0  0  0  0  0  0  0  0
  1  2  1  0  0  0  0
  2  3  1  0  0  0  0
  3  4  1  0  0  0  0
  4  5  1  0  0  0  0
  1  5  1  0  0  0  0
  3  6  1  0  0  0  0
  6  7  1  0  0  0  0
  7  8  2  0  0  0  0
  8  9  1  0  0  0  0
  9 10  2  0  0  0  0
 10 11  1  0  0  0  0
 11 12  2  0  0  0  0
  7 12  1  0  0  0  0
M  END
>  <Catalog ID>
Z976691504

>  <PlateID>
1198308-R-SPFL-06

>  <Well>
G03

>  <MW (desalted)>
164.204

>  <ClogP>
1.065

>  <HBD>
1

>  <TPSA>
34.150

>  <RotBonds>
2

$$$$

            

 13 14  0  0  0  0            999 V2000
   -0.0000    7.1786    0.0000 N   0  0  0  0  0  0  0  0  0  0  0  0
    0.7145    6.7661    0.0000 C   0  0  0  0  0  0  0  0  0  0  0  0
    0.7145    5.9411    0.0000 C   0  0  0  0  0  0  0  0  0  0  0  0
    1.4289    5.5286    0.0000 C   0  0  0  0  0  0  0  0  0  0  0  0
    1.4289    4.7036    0.0000 C   0  0  0  0  0  0  0  0  0  0  0  0
    0.7145    4.2911    0.0000 C   0  0  0  0  0  0  0  0  0  0  0  0
    0.0000    4.7036    0.0000 C   0  0  0  0  0  0  0  0  0  0  0  0
    0.0000    5.5286    0.0000 C   0  0  0  0  0  0  0  0  0  0  0  0
    0.7145    3.4661    0.0000 N   0  0  0  0  0  0  0  0  0  0  0  0
    1.3819    2.9812    0.0000 C   0  0  0  0  0  0  0  0  0  0  0  0
    1.1270    2.1965    0.0000 C   0  0  0  0  0  0  0  0  0  0  0  0
    0.3020    2.1965    0.0000 C   0  0  0  0  0  0  0  0  0  0  0  0
    0.0470    2.9812    0.0000 N   0  0  0  0  0  0  0  0  0  0  0  0
  1  2  1  0  0  0  0
  2  3  1  0  0  0  0
  3  4  2  0  0  0  0
  4  5  1  0  0  0  0
  5  6  2  0  0  0  0
  6  7  1  0  0  0  0
  7  8  2  0  0  0  0
  3  8  1  0  0  0  0
  6  9  1  0  0  0  0
  9 10  1  0  0  0  0
 10 11  2  0  0  0  0
 11 12  1  0  0  0  0
 12 13  2  0  0  0  0
  9 13  1  0  0  0  0
M  END
>  <Catalog ID>
Z124321540

>  <PlateID>
1198308-R-SPFL-06

>  <Well>
G04

>  <MW (desalted)>
173.214

>  <ClogP>
1.148

>  <HBD>
1

>  <TPSA>
43.840

>  <RotBonds>
2

$$$$

            

 13 14  0  0  0  0            999 V2000
    0.7145   -0.4125    0.0000 N   0  0  0  0  0  0  0  0  0  0  0  0
    0.7145   -1.2375    0.0000 C   0  0  0  0  0  0  0  0  0  0  0  0
    1.4289   -1.6500    0.0000 C   0  0  0  0  0  0  0  0  0  0  0  0
    1.4289   -2.4750    0.0000 C   0  0  0  0  0  0  0  0  0  0  0  0
    0.7145   -2.8875    0.0000 N   0  0  0  0  0  0  0  0  0  0  0  0
    0.0000   -2.4750    0.0000 C   0  0  0  0  0  0  0  0  0  0  0  0
    0.0000   -1.6500    0.0000 C   0  0  0  0  0  0  0  0  0  0  0  0
    0.7145   -3.7125    0.0000 C   0  0  0  0  0  0  0  0  0  0  0  0
    1.4289   -4.1250    0.0000 C   0  0  0  0  0  0  0  0  0  0  0  0
    1.4289   -4.9500    0.0000 C   0  0  0  0  0  0  0  0  0  0  0  0
    0.7145   -5.3625    0.0000 C   0  0  0  0  0  0  0  0  0  0  0  0
    0.0000   -4.9500    0.0000 C   0  0  0  0  0  0  0  0  0  0  0  0
    0.0000   -4.1250    0.0000 C   0  0  0  0  0  0  0  0  0  0  0  0
  1  2  1  0  0  0  0
  2  3  1  0  0  0  0
  3  4  1  0  0  0  0
  4  5  1  0  0  0  0
  5  6  1  0  0  0  0
  6  7  1  0  0  0  0
  2  7  1  0  0  0  0
  5  8  1  0  0  0  0
  8  9  2  0  0  0  0
  9 10  1  0  0  0  0
 10 11  2  0  0  0  0
 11 12  1  0  0  0  0
 12 13  2  0  0  0  0
  8 13  1  0  0  0  0
M  END
>  <Catalog ID>
Z295882374

>  <PlateID>
1198308-R-SPFL-06

>  <Well>
G05

>  <MW (desalted)>
176.258

>  <ClogP>
0.993

>  <HBD>
1

>  <TPSA>
29.260

>  <RotBonds>
1

$$$$

            

 11 11  0  0  0  0            999 V2000
    1.4289    2.4750    0.0000 C   0  0  0  0  0  0  0  0  0  0  0  0
    0.7145    2.0625    0.0000 O   0  0  0  0  0  0  0  0  0  0  0  0
    0.7145    1.2375    0.0000 C   0  0  0  0  0  0  0  0  0  0  0  0
    1.4289    0.8250    0.0000 N   0  0  0  0  0  0  0  0  0  0  0  0
    1.4289   -0.0000    0.0000 C   0  0  0  0  0  0  0  0  0  0  0  0
    0.7145   -0.4125    0.0000 C   0  0  0  0  0  0  0  0  0  0  0  0
    0.0000    0.0000    0.0000 C   0  0  0  0  0  0  0  0  0  0  0  0
    0.0000    0.8250    0.0000 C   0  0  0  0  0  0  0  0  0  0  0  0
   -0.7145    1.2375    0.0000 C   0  0  0  0  0  0  0  0  0  0  0  0
   -0.7145    2.0625    0.0000 C   0  0  0  0  0  0  0  0  0  0  0  0
   -1.4289    2.4750    0.0000 N   0  0  0  0  0  0  0  0  0  0  0  0
  1  2  1  0  0  0  0
  2  3  1  0  0  0  0
  3  4  2  0  0  0  0
  4  5  1  0  0  0  0
  5  6  2  0  0  0  0
  6  7  1  0  0  0  0
  7  8  2  0  0  0  0
  3  8  1  0  0  0  0
  8  9  1  0  0  0  0
  9 10  1  0  0  0  0
 10 11  1  0  0  0  0
M  END
>  <Catalog ID>
Z1198178649

>  <PlateID>
1198308-R-SPFL-06

>  <Well>
G06

>  <MW (desalted)>
152.194

>  <ClogP>
0.756

>  <HBD>
1

>  <TPSA>
48.140

>  <RotBonds>
3

$$$$

            

 11 12  0  0  0  0            999 V2000
    1.4289   -1.6500    0.0000 C   0  0  0  0  0  0  0  0  0  0  0  0
    0.7145   -1.2375    0.0000 N   0  0  0  0  0  0  0  0  0  0  0  0
    0.7145   -0.4125    0.0000 C   0  0  0  0  0  0  0  0  0  0  0  0
    0.0000    0.0000    0.0000 N   0  0  0  0  0  0  0  0  0  0  0  0
    0.0000    0.8250    0.0000 C   0  0  0  0  0  0  0  0  0  0  0  0
    0.7145    1.2375    0.0000 C   0  0  0  0  0  0  0  0  0  0  0  0
    1.4289    0.8250    0.0000 C   0  0  0  0  0  0  0  0  0  0  0  0
    1.4289    0.0000    0.0000 N   0  0  0  0  0  0  0  0  0  0  0  0
    1.4289   -2.4750    0.0000 C   0  0  0  0  0  0  0  0  0  0  0  0
    1.8414   -3.1895    0.0000 C   0  0  0  0  0  0  0  0  0  0  0  0
    1.0164   -3.1895    0.0000 C   0  0  0  0  0  0  0  0  0  0  0  0
  1  2  1  0  0  0  0
  2  3  1  0  0  0  0
  3  4  2  0  0  0  0
  4  5  1  0  0  0  0
  5  6  2  0  0  0  0
  6  7  1  0  0  0  0
  7  8  2  0  0  0  0
  3  8  1  0  0  0  0
  1  9  1  0  0  0  0
  9 10  1  0  0  0  0
 10 11  1  0  0  0  0
  9 11  1  0  0  0  0
M  END
>  <Catalog ID>
Z275103984

>  <PlateID>
1198308-R-SPFL-06

>  <Well>
G07

>  <MW (desalted)>
149.193

>  <ClogP>
1.472

>  <HBD>
1

>  <TPSA>
37.810

>  <RotBonds>
3

$$$$

            

 11 12  0  0  0  0            999 V2000
    0.8838   -2.1500    0.0000 C   0  0  0  0  0  0  0  0  0  0  0  0
    1.1387   -1.3654    0.0000 C   0  0  0  0  0  0  0  0  0  0  0  0
    0.6538   -0.6979    0.0000 C   0  0  0  0  0  0  0  0  0  0  0  0
   -0.1712   -0.6979    0.0000 N   0  0  0  0  0  0  0  0  0  0  0  0
    1.1387   -0.0305    0.0000 N   0  0  0  0  0  0  0  0  0  0  0  0
    1.9233   -0.2854    0.0000 C   0  0  0  0  0  0  0  0  0  0  0  0
    2.6378    0.1271    0.0000 C   0  0  0  0  0  0  0  0  0  0  0  0
    3.3523   -0.2854    0.0000 C   0  0  0  0  0  0  0  0  0  0  0  0
    3.3523   -1.1104    0.0000 C   0  0  0  0  0  0  0  0  0  0  0  0
    2.6378   -1.5229    0.0000 C   0  0  0  0  0  0  0  0  0  0  0  0
    1.9233   -1.1104    0.0000 N   0  0  0  0  0  0  0  0  0  0  0  0
  1  2  1  0  0  0  0
  2  3  2  0  0  0  0
  3  4  1  0  0  0  0
  3  5  1  0  0  0  0
  5  6  2  0  0  0  0
  6  7  1  0  0  0  0
  7  8  2  0  0  0  0
  8  9  1  0  0  0  0
  9 10  2  0  0  0  0
 10 11  1  0  0  0  0
  2 11  1  0  0  0  0
  6 11  1  0  0  0  0
M  END
>  <Catalog ID>
Z2061788013

>  <PlateID>
1198308-R-SPFL-06

>  <Well>
G08

>  <MW (desalted)>
147.177

>  <ClogP>
1.323

>  <HBD>
1

>  <TPSA>
43.320

>  <RotBonds>
0

$$$$

            

 12 13  0  0  0  0            999 V2000
    2.5330    0.1698    0.0000 C   0  0  0  0  0  0  0  0  0  0  0  0
    2.5330   -0.6552    0.0000 N   0  0  0  0  0  0  0  0  0  0  0  0
    3.2004   -1.1401    0.0000 C   0  0  0  0  0  0  0  0  0  0  0  0
    2.9455   -1.9248    0.0000 C   0  0  0  0  0  0  0  0  0  0  0  0
    3.4304   -2.5922    0.0000 C   0  0  0  0  0  0  0  0  0  0  0  0
    3.0948   -3.3459    0.0000 C   0  0  0  0  0  0  0  0  0  0  0  0
    3.5073   -4.0603    0.0000 C   0  0  0  0  0  0  0  0  0  0  0  0
    2.9553   -4.6734    0.0000 C   0  0  0  0  0  0  0  0  0  0  0  0
    2.2016   -4.3379    0.0000 C   0  0  0  0  0  0  0  0  0  0  0  0
    2.2879   -3.5174    0.0000 N   0  0  0  0  0  0  0  0  0  0  0  0
    2.1205   -1.9248    0.0000 C   0  0  0  0  0  0  0  0  0  0  0  0
    1.8655   -1.1401    0.0000 N   0  0  0  0  0  0  0  0  0  0  0  0
  1  2  1  0  0  0  0
  2  3  1  0  0  0  0
  3  4  2  0  0  0  0
  4  5  1  0  0  0  0
  5  6  1  0  0  0  0
  6  7  1  0  0  0  0
  7  8  1  0  0  0  0
  8  9  1  0  0  0  0
  9 10  1  0  0  0  0
  6 10  1  0  0  0  0
  4 11  1  0  0  0  0
 11 12  2  0  0  0  0
  2 12  1  0  0  0  0
M  END
>  <Catalog ID>
Z1192018208

>  <PlateID>
1198308-R-SPFL-06

>  <Well>
G09

>  <MW (desalted)>
165.236

>  <ClogP>
0.348

>  <HBD>
1

>  <TPSA>
29.850

>  <RotBonds>
2

$$$$

            

 10 10  0  0  0  0            999 V2000
    0.5678    1.9393    0.0000 C   0  0  0  0  0  0  0  0  0  0  0  0
    0.5678    1.1143    0.0000 C   0  0  0  0  0  0  0  0  0  0  0  0
    1.2352    0.6294    0.0000 N   0  0  0  0  0  0  0  0  0  0  0  0
    0.9803   -0.1553    0.0000 C   0  0  0  0  0  0  0  0  0  0  0  0
    1.4652   -0.8227    0.0000 C   0  0  0  0  0  0  0  0  0  0  0  0
    1.1296   -1.5764    0.0000 C   0  0  0  0  0  0  0  0  0  0  0  0
    1.6145   -2.2438    0.0000 O   0  0  0  0  0  0  0  0  0  0  0  0
    0.1553   -0.1553    0.0000 S   0  0  0  0  0  0  0  0  0  0  0  0
   -0.0997    0.6294    0.0000 C   0  0  0  0  0  0  0  0  0  0  0  0
   -0.8843    0.8843    0.0000 C   0  0  0  0  0  0  0  0  0  0  0  0
  1  2  1  0  0  0  0
  2  3  1  0  0  0  0
  3  4  2  0  0  0  0
  4  5  1  0  0  0  0
  5  6  1  0  0  0  0
  6  7  1  0  0  0  0
  4  8  1  0  0  0  0
  8  9  1  0  0  0  0
  2  9  2  0  0  0  0
  9 10  1  0  0  0  0
M  END
>  <Catalog ID>
Z1395385682

>  <PlateID>
1198308-R-SPFL-06

>  <Well>
G10

>  <MW (desalted)>
157.233

>  <ClogP>
0.625

>  <HBD>
1

>  <TPSA>
33.120

>  <RotBonds>
2

$$$$

            

 15 16  0  0  0  0            999 V2000
   -0.0000    7.1786    0.0000 C   0  0  0  0  0  0  0  0  0  0  0  0
    0.7145    6.7661    0.0000 O   0  0  0  0  0  0  0  0  0  0  0  0
    0.7145    5.9411    0.0000 C   0  0  0  0  0  0  0  0  0  0  0  0
    1.4289    5.5286    0.0000 C   0  0  0  0  0  0  0  0  0  0  0  0
    1.4289    4.7036    0.0000 C   0  0  0  0  0  0  0  0  0  0  0  0
    0.7145    4.2911    0.0000 C   0  0  0  0  0  0  0  0  0  0  0  0
    0.0000    4.7036    0.0000 C   0  0  0  0  0  0  0  0  0  0  0  0
    0.0000    5.5286    0.0000 C   0  0  0  0  0  0  0  0  0  0  0  0
    0.7145    3.4661    0.0000 C   0  0  0  0  0  0  0  0  0  0  0  0
    1.3819    2.9812    0.0000 N   0  0  0  0  0  0  0  0  0  0  0  0
    1.1270    2.1965    0.0000 C   0  0  0  0  0  0  0  0  0  0  0  0
    1.6119    1.5291    0.0000 C   0  0  0  0  0  0  0  0  0  0  0  0
    2.4324    1.6153    0.0000 N   0  0  0  0  0  0  0  0  0  0  0  0
    0.3020    2.1965    0.0000 C   0  0  0  0  0  0  0  0  0  0  0  0
    0.0470    2.9812    0.0000 S   0  0  0  0  0  0  0  0  0  0  0  0
  1  2  1  0  0  0  0
  2  3  1  0  0  0  0
  3  4  2  0  0  0  0
  4  5  1  0  0  0  0
  5  6  2  0  0  0  0
  6  7  1  0  0  0  0
  7  8  2  0  0  0  0
  3  8  1  0  0  0  0
  6  9  1  0  0  0  0
  9 10  2  0  0  0  0
 10 11  1  0  0  0  0
 11 12  1  0  0  0  0
 12 13  1  0  0  0  0
 11 14  2  0  0  0  0
 14 15  1  0  0  0  0
  9 15  1  0  0  0  0
M  END
>  <Catalog ID>
Z105197314

>  <PlateID>
1198308-R-SPFL-06

>  <Well>
G11

>  <MW (desalted)>
220.291

>  <ClogP>
1.556

>  <HBD>
1

>  <TPSA>
48.140

>  <RotBonds>
3

$$$$

            

 14 15  0  0  0  0            999 V2000
    0.0000    0.0000    0.0000 N   0  0  0  0  0  0  0  0  0  0  0  0
    0.7145   -0.4125    0.0000 C   0  0  0  0  0  0  0  0  0  0  0  0
    0.7145   -1.2375    0.0000 C   0  0  0  0  0  0  0  0  0  0  0  0
    1.3819   -1.7224    0.0000 N   0  0  0  0  0  0  0  0  0  0  0  0
    1.1270   -2.5070    0.0000 C   0  0  0  0  0  0  0  0  0  0  0  0
    0.3020   -2.5070    0.0000 N   0  0  0  0  0  0  0  0  0  0  0  0
    0.0470   -1.7224    0.0000 O   0  0  0  0  0  0  0  0  0  0  0  0
    1.6119   -3.1745    0.0000 C   0  0  0  0  0  0  0  0  0  0  0  0
    2.4324   -3.0882    0.0000 C   0  0  0  0  0  0  0  0  0  0  0  0
    2.9173   -3.7557    0.0000 C   0  0  0  0  0  0  0  0  0  0  0  0
    2.5817   -4.5094    0.0000 C   0  0  0  0  0  0  0  0  0  0  0  0
    1.7613   -4.5956    0.0000 C   0  0  0  0  0  0  0  0  0  0  0  0
    1.4257   -5.3493    0.0000 F   0  0  0  0  0  0  0  0  0  0  0  0
    1.2763   -3.9282    0.0000 C   0  0  0  0  0  0  0  0  0  0  0  0
  1  2  1  0  0  0  0
  2  3  1  0  0  0  0
  3  4  2  0  0  0  0
  4  5  1  0  0  0  0
  5  6  2  0  0  0  0
  6  7  1  0  0  0  0
  3  7  1  0  0  0  0
  5  8  1  0  0  0  0
  8  9  2  0  0  0  0
  9 10  1  0  0  0  0
 10 11  2  0  0  0  0
 11 12  1  0  0  0  0
 12 13  1  0  0  0  0
 12 14  2  0  0  0  0
  8 14  1  0  0  0  0
M  END
>  <Catalog ID>
Z336080766

>  <PlateID>
1198308-R-SPFL-06

>  <Well>
H02

>  <MW (desalted)>
193.178

>  <ClogP>
0.691

>  <HBD>
1

>  <TPSA>
64.940

>  <RotBonds>
2

$$$$

            

 10 10  0  0  0  0            999 V2000
    1.2822    2.3518    0.0000 O   0  0  0  0  0  0  0  0  0  0  0  0
    0.5678    1.9393    0.0000 C   0  0  0  0  0  0  0  0  0  0  0  0
    0.5678    1.1143    0.0000 C   0  0  0  0  0  0  0  0  0  0  0  0
    1.2352    0.6294    0.0000 C   0  0  0  0  0  0  0  0  0  0  0  0
    0.9803   -0.1553    0.0000 C   0  0  0  0  0  0  0  0  0  0  0  0
    0.1553   -0.1553    0.0000 N   0  0  0  0  0  0  0  0  0  0  0  0
   -0.0997    0.6294    0.0000 N   0  0  0  0  0  0  0  0  0  0  0  0
   -0.3297   -0.8227    0.0000 C   0  0  0  0  0  0  0  0  0  0  0  0
    0.0059   -1.5764    0.0000 F   0  0  0  0  0  0  0  0  0  0  0  0
   -1.1501   -0.7365    0.0000 F   0  0  0  0  0  0  0  0  0  0  0  0
  1  2  1  0  0  0  0
  2  3  1  0  0  0  0
  3  4  1  0  0  0  0
  4  5  2  0  0  0  0
  5  6  1  0  0  0  0
  6  7  1  0  0  0  0
  3  7  2  0  0  0  0
  6  8  1  0  0  0  0
  8  9  1  0  0  0  0
  8 10  1  0  0  0  0
M  END
>  <Catalog ID>
Z1255381233

>  <PlateID>
1198308-R-SPFL-06

>  <Well>
H03

>  <MW (desalted)>
148.111

>  <ClogP>
-0.485

>  <HBD>
1

>  <TPSA>
38.050

>  <RotBonds>
2

$$$$

            

 10 10  0  0  0  0            999 V2000
    0.7145    2.0625    0.0000 C   0  0  0  0  0  0  0  0  0  0  0  0
    0.7145    1.2375    0.0000 C   0  0  0  0  0  0  0  0  0  0  0  0
    1.4289    0.8250    0.0000 C   0  0  0  0  0  0  0  0  0  0  0  0
    1.4289   -0.0000    0.0000 C   0  0  0  0  0  0  0  0  0  0  0  0
    0.7145   -0.4125    0.0000 C   0  0  0  0  0  0  0  0  0  0  0  0
    0.0000    0.0000    0.0000 N   0  0  0  0  0  0  0  0  0  0  0  0
    0.0000    0.8250    0.0000 C   0  0  0  0  0  0  0  0  0  0  0  0
   -0.7145    1.2375    0.0000 C   0  0  0  0  0  0  0  0  0  0  0  0
   -0.7145    2.0625    0.0000 C   0  0  0  0  0  0  0  0  0  0  0  0
   -1.4289    2.4750    0.0000 N   0  0  0  0  0  0  0  0  0  0  0  0
  1  2  1  0  0  0  0
  2  3  2  0  0  0  0
  3  4  1  0  0  0  0
  4  5  2  0  0  0  0
  5  6  1  0  0  0  0
  6  7  2  0  0  0  0
  2  7  1  0  0  0  0
  7  8  1  0  0  0  0
  8  9  1  0  0  0  0
  9 10  1  0  0  0  0
M  END
>  <Catalog ID>
Z1098234132

>  <PlateID>
1198308-R-SPFL-06

>  <Well>
H04

>  <MW (desalted)>
136.194

>  <ClogP>
0.385

>  <HBD>
1

>  <TPSA>
38.910

>  <RotBonds>
2

$$$$

            

 12 13  0  0  0  0            999 V2000
    0.7145   -0.4125    0.0000 N   0  0  0  0  0  0  0  0  0  0  0  0
    0.7145   -1.2375    0.0000 C   0  0  0  0  0  0  0  0  0  0  0  0
    1.3819   -1.7224    0.0000 C   0  0  0  0  0  0  0  0  0  0  0  0
    1.1270   -2.5070    0.0000 C   0  0  0  0  0  0  0  0  0  0  0  0
    0.3020   -2.5070    0.0000 O   0  0  0  0  0  0  0  0  0  0  0  0
    0.0470   -1.7224    0.0000 N   0  0  0  0  0  0  0  0  0  0  0  0
    1.6119   -3.1745    0.0000 C   0  0  0  0  0  0  0  0  0  0  0  0
    2.4324   -3.0882    0.0000 C   0  0  0  0  0  0  0  0  0  0  0  0
    2.9173   -3.7557    0.0000 C   0  0  0  0  0  0  0  0  0  0  0  0
    2.5817   -4.5094    0.0000 C   0  0  0  0  0  0  0  0  0  0  0  0
    1.7613   -4.5956    0.0000 C   0  0  0  0  0  0  0  0  0  0  0  0
    1.2763   -3.9282    0.0000 C   0  0  0  0  0  0  0  0  0  0  0  0
  1  2  1  0  0  0  0
  2  3  1  0  0  0  0
  3  4  2  0  0  0  0
  4  5  1  0  0  0  0
  5  6  1  0  0  0  0
  2  6  2  0  0  0  0
  4  7  1  0  0  0  0
  7  8  2  0  0  0  0
  8  9  1  0  0  0  0
  9 10  2  0  0  0  0
 10 11  1  0  0  0  0
 11 12  2  0  0  0  0
  7 12  1  0  0  0  0
M  END
>  <Catalog ID>
Z1020945160

>  <PlateID>
1198308-R-SPFL-06

>  <Well>
H05

>  <MW (desalted)>
160.173

>  <ClogP>
1.867

>  <HBD>
1

>  <TPSA>
52.050

>  <RotBonds>
1

$$$$

            

 14 15  0  0  0  0            999 V2000
    0.7145   -0.4125    0.0000 C   0  0  0  0  0  0  0  0  0  0  0  0
    0.7145   -1.2375    0.0000 C   0  0  0  0  0  0  0  0  0  0  0  0
    1.3819   -1.7224    0.0000 N   0  0  0  0  0  0  0  0  0  0  0  0
    1.1270   -2.5070    0.0000 C   0  0  0  0  0  0  0  0  0  0  0  0
    0.3020   -2.5070    0.0000 S   0  0  0  0  0  0  0  0  0  0  0  0
    0.0470   -1.7224    0.0000 C   0  0  0  0  0  0  0  0  0  0  0  0
   -0.7376   -1.4675    0.0000 C   0  0  0  0  0  0  0  0  0  0  0  0
   -1.3507   -2.0195    0.0000 C   0  0  0  0  0  0  0  0  0  0  0  0
   -2.1353   -1.7646    0.0000 C   0  0  0  0  0  0  0  0  0  0  0  0
   -2.3068   -0.9576    0.0000 C   0  0  0  0  0  0  0  0  0  0  0  0
   -3.0915   -0.7027    0.0000 C   0  0  0  0  0  0  0  0  0  0  0  0
   -3.7045   -1.2547    0.0000 N   0  0  0  0  0  0  0  0  0  0  0  0
   -1.6937   -0.4056    0.0000 C   0  0  0  0  0  0  0  0  0  0  0  0
   -0.9091   -0.6605    0.0000 C   0  0  0  0  0  0  0  0  0  0  0  0
  1  2  1  0  0  0  0
  2  3  1  0  0  0  0
  3  4  2  0  0  0  0
  4  5  1  0  0  0  0
  5  6  1  0  0  0  0
  2  6  2  0  0  0  0
  6  7  1  0  0  0  0
  7  8  2  0  0  0  0
  8  9  1  0  0  0  0
  9 10  2  0  0  0  0
 10 11  1  0  0  0  0
 11 12  1  0  0  0  0
 10 13  1  0  0  0  0
 13 14  2  0  0  0  0
  7 14  1  0  0  0  0
M  END
>  <Catalog ID>
Z2181115132

>  <PlateID>
1198308-R-SPFL-06

>  <Well>
H06

>  <MW (desalted)>
204.291

>  <ClogP>
1.735

>  <HBD>
1

>  <TPSA>
38.910

>  <RotBonds>
2

$$$$

            

 12 13  0  0  0  0            999 V2000
   -0.2699   -1.3310    0.0000 O   0  0  0  0  0  0  0  0  0  0  0  0
    0.4445   -0.9185    0.0000 C   0  0  0  0  0  0  0  0  0  0  0  0
    1.1590   -1.3310    0.0000 O   0  0  0  0  0  0  0  0  0  0  0  0
    0.4445   -0.0935    0.0000 C   0  0  0  0  0  0  0  0  0  0  0  0
   -0.1388    0.4898    0.0000 C   0  0  0  0  0  0  0  0  0  0  0  0
    0.4445    1.0732    0.0000 C   0  0  0  0  0  0  0  0  0  0  0  0
    1.0279    0.4898    0.0000 C   0  0  0  0  0  0  0  0  0  0  0  0
    0.4445    1.8982    0.0000 C   0  0  0  0  0  0  0  0  0  0  0  0
    0.4445    2.7232    0.0000 F   0  0  0  0  0  0  0  0  0  0  0  0
    1.2695    1.8982    0.0000 F   0  0  0  0  0  0  0  0  0  0  0  0
   -0.3805    1.8982    0.0000 F   0  0  0  0  0  0  0  0  0  0  0  0
    0.5904    0.4898    0.0000 C   0  0  0  0  0  0  0  0  0  0  0  0
  1  2  1  0  0  0  0
  2  3  2  0  0  0  0
  2  4  1  0  0  0  0
  4  5  1  0  0  0  0
  5  6  1  0  0  0  0
  6  7  1  0  0  0  0
  4  7  1  0  0  0  0
  6  8  1  0  0  0  0
  8  9  1  0  0  0  0
  8 10  1  0  0  0  0
  8 11  1  0  0  0  0
  4 12  1  0  0  0  0
  6 12  1  0  0  0  0
M  END
>  <Catalog ID>
Z802560076

>  <PlateID>
1198308-R-SPFL-06

>  <Well>
H07

>  <MW (desalted)>
180.124

>  <ClogP>
0.717

>  <HBD>
1

>  <TPSA>
37.300

>  <RotBonds>
2

$$$$

            

 13 14  0  0  0  0            999 V2000
    0.0000    0.0000    0.0000 O   0  0  0  0  0  0  0  0  0  0  0  0
    0.7145   -0.4125    0.0000 C   0  0  0  0  0  0  0  0  0  0  0  0
    0.7145   -1.2375    0.0000 C   0  0  0  0  0  0  0  0  0  0  0  0
    1.3819   -1.7224    0.0000 N   0  0  0  0  0  0  0  0  0  0  0  0
    1.1270   -2.5070    0.0000 C   0  0  0  0  0  0  0  0  0  0  0  0
    0.3020   -2.5070    0.0000 C   0  0  0  0  0  0  0  0  0  0  0  0
    0.0470   -1.7224    0.0000 S   0  0  0  0  0  0  0  0  0  0  0  0
    1.6119   -3.1745    0.0000 C   0  0  0  0  0  0  0  0  0  0  0  0
    2.4324   -3.0882    0.0000 C   0  0  0  0  0  0  0  0  0  0  0  0
    2.9173   -3.7557    0.0000 C   0  0  0  0  0  0  0  0  0  0  0  0
    2.5817   -4.5094    0.0000 C   0  0  0  0  0  0  0  0  0  0  0  0
    1.7613   -4.5956    0.0000 C   0  0  0  0  0  0  0  0  0  0  0  0
    1.2763   -3.9282    0.0000 C   0  0  0  0  0  0  0  0  0  0  0  0
  1  2  1  0  0  0  0
  2  3  1  0  0  0  0
  3  4  2  0  0  0  0
  4  5  1  0  0  0  0
  5  6  2  0  0  0  0
  6  7  1  0  0  0  0
  3  7  1  0  0  0  0
  5  8  1  0  0  0  0
  8  9  2  0  0  0  0
  9 10  1  0  0  0  0
 10 11  2  0  0  0  0
 11 12  1  0  0  0  0
 12 13  2  0  0  0  0
  8 13  1  0  0  0  0
M  END
>  <Catalog ID>
Z415737292

>  <PlateID>
1198308-R-SPFL-06

>  <Well>
H08

>  <MW (desalted)>
191.250

>  <ClogP>
1.546

>  <HBD>
1

>  <TPSA>
33.120

>  <RotBonds>
2

$$$$

            

 15 16  0  0  1  0            999 V2000
    2.7512   -0.0616    0.0000 O   0  0  0  0  0  0  0  0  0  0  0  0
    2.0367   -0.4741    0.0000 C   0  0  0  0  0  0  0  0  0  0  0  0
    2.0367   -1.2991    0.0000 C   0  0  2  0  0  0  0  0  0  0  0  0
    2.7041   -1.7840    0.0000 C   0  0  0  0  0  0  0  0  0  0  0  0
    2.4492   -2.5687    0.0000 C   0  0  0  0  0  0  0  0  0  0  0  0
    1.6242   -2.5687    0.0000 C   0  0  0  0  0  0  0  0  0  0  0  0
    1.3693   -1.7840    0.0000 N   0  0  0  0  0  0  0  0  0  0  0  0
    0.5846   -1.5291    0.0000 C   0  0  0  0  0  0  0  0  0  0  0  0
    0.4131   -0.7221    0.0000 C   0  0  0  0  0  0  0  0  0  0  0  0
   -0.3715   -0.4672    0.0000 C   0  0  0  0  0  0  0  0  0  0  0  0
   -0.5430    0.3398    0.0000 C   0  0  0  0  0  0  0  0  0  0  0  0
    0.0701    0.8918    0.0000 C   0  0  0  0  0  0  0  0  0  0  0  0
    0.8547    0.6369    0.0000 C   0  0  0  0  0  0  0  0  0  0  0  0
    1.4678    1.1889    0.0000 F   0  0  0  0  0  0  0  0  0  0  0  0
    1.0262   -0.1701    0.0000 C   0  0  0  0  0  0  0  0  0  0  0  0
  1  2  1  0  0  0  0
  3  2  1  6  0  0  0
  3  4  1  0  0  0  0
  4  5  1  0  0  0  0
  5  6  1  0  0  0  0
  6  7  1  0  0  0  0
  3  7  1  0  0  0  0
  7  8  1  0  0  0  0
  8  9  1  0  0  0  0
  9 10  2  0  0  0  0
 10 11  1  0  0  0  0
 11 12  2  0  0  0  0
 12 13  1  0  0  0  0
 13 14  1  0  0  0  0
 13 15  2  0  0  0  0
  9 15  1  0  0  0  0
M  END
>  <Catalog ID>
Z1130245417

>  <PlateID>
1198308-R-SPFL-06

>  <Well>
H09

>  <MW (desalted)>
209.260

>  <ClogP>
2.118

>  <HBD>
1

>  <TPSA>
23.470

>  <RotBonds>
3

$$$$

            

 12 12  0  0  0  0            999 V2000
    1.4289    2.4750    0.0000 N   0  0  0  0  0  0  0  0  0  0  0  0
    0.7145    2.0625    0.0000 C   0  0  0  0  0  0  0  0  0  0  0  0
    0.7145    1.2375    0.0000 C   0  0  0  0  0  0  0  0  0  0  0  0
    1.4289    0.8250    0.0000 C   0  0  0  0  0  0  0  0  0  0  0  0
    1.4289   -0.0000    0.0000 C   0  0  0  0  0  0  0  0  0  0  0  0
    0.7145   -0.4125    0.0000 N   0  0  0  0  0  0  0  0  0  0  0  0
    0.0000    0.0000    0.0000 C   0  0  0  0  0  0  0  0  0  0  0  0
   -0.7145   -0.4125    0.0000 O   0  0  0  0  0  0  0  0  0  0  0  0
   -1.4289    0.0000    0.0000 C   0  0  0  0  0  0  0  0  0  0  0  0
   -2.1434   -0.4125    0.0000 F   0  0  0  0  0  0  0  0  0  0  0  0
   -1.4289    0.8250    0.0000 F   0  0  0  0  0  0  0  0  0  0  0  0
    0.0000    0.8250    0.0000 C   0  0  0  0  0  0  0  0  0  0  0  0
  1  2  1  0  0  0  0
  2  3  1  0  0  0  0
  3  4  2  0  0  0  0
  4  5  1  0  0  0  0
  5  6  2  0  0  0  0
  6  7  1  0  0  0  0
  7  8  1  0  0  0  0
  8  9  1  0  0  0  0
  9 10  1  0  0  0  0
  9 11  1  0  0  0  0
  7 12  2  0  0  0  0
  3 12  1  0  0  0  0
M  END
>  <Catalog ID>
Z1255460830

>  <PlateID>
1198308-R-SPFL-06

>  <Well>
H10

>  <MW (desalted)>
174.148

>  <ClogP>
0.863

>  <HBD>
1

>  <TPSA>
48.140

>  <RotBonds>
3

$$$$

            

 11 12  0  0  0  0            999 V2000
    3.7279    1.9441    0.0000 C   0  0  0  0  0  0  0  0  0  0  0  0
    3.3700    1.2008    0.0000 C   0  0  0  0  0  0  0  0  0  0  0  0
    2.5656    1.0173    0.0000 N   0  0  0  0  0  0  0  0  0  0  0  0
    1.9206    1.5316    0.0000 C   0  0  0  0  0  0  0  0  0  0  0  0
    1.2062    1.1191    0.0000 C   0  0  0  0  0  0  0  0  0  0  0  0
    0.4917    1.5316    0.0000 C   0  0  0  0  0  0  0  0  0  0  0  0
    0.4917    2.3566    0.0000 C   0  0  0  0  0  0  0  0  0  0  0  0
    1.2062    2.7691    0.0000 C   0  0  0  0  0  0  0  0  0  0  0  0
    1.9206    2.3566    0.0000 C   0  0  0  0  0  0  0  0  0  0  0  0
    2.5656    2.8710    0.0000 O   0  0  0  0  0  0  0  0  0  0  0  0
    3.3700    2.6874    0.0000 C   0  0  0  0  0  0  0  0  0  0  0  0
  1  2  1  0  0  0  0
  2  3  1  0  0  0  0
  3  4  1  0  0  0  0
  4  5  2  0  0  0  0
  5  6  1  0  0  0  0
  6  7  2  0  0  0  0
  7  8  1  0  0  0  0
  8  9  2  0  0  0  0
  4  9  1  0  0  0  0
  9 10  1  0  0  0  0
 10 11  1  0  0  0  0
  1 11  1  0  0  0  0
M  END
>  <Catalog ID>
Z955121430

>  <PlateID>
1198308-R-SPFL-06

>  <Well>
H11

>  <MW (desalted)>
149.190

>  <ClogP>
1.819

>  <HBD>
1

>  <TPSA>
21.260

>  <RotBonds>
0

$$$$

            

 11 12  0  0  0  0            999 V2000
    0.2893    5.5559    0.0000 C   0  0  0  0  0  0  0  0  0  0  0  0
    0.7742    4.8884    0.0000 N   0  0  0  0  0  0  0  0  0  0  0  0
    1.5992    4.8884    0.0000 N   0  0  0  0  0  0  0  0  0  0  0  0
    1.8542    4.1038    0.0000 C   0  0  0  0  0  0  0  0  0  0  0  0
    1.1867    3.6189    0.0000 C   0  0  0  0  0  0  0  0  0  0  0  0
    1.1867    2.7939    0.0000 C   0  0  0  0  0  0  0  0  0  0  0  0
    1.5992    2.0794    0.0000 C   0  0  0  0  0  0  0  0  0  0  0  0
    0.7742    2.0794    0.0000 C   0  0  0  0  0  0  0  0  0  0  0  0
    0.5193    4.1038    0.0000 C   0  0  0  0  0  0  0  0  0  0  0  0
   -0.2653    3.8489    0.0000 C   0  0  0  0  0  0  0  0  0  0  0  0
   -0.8784    4.4009    0.0000 N   0  0  0  0  0  0  0  0  0  0  0  0
  1  2  1  0  0  0  0
  2  3  1  0  0  0  0
  3  4  2  0  0  0  0
  4  5  1  0  0  0  0
  5  6  1  0  0  0  0
  6  7  1  0  0  0  0
  7  8  1  0  0  0  0
  6  8  1  0  0  0  0
  5  9  2  0  0  0  0
  2  9  1  0  0  0  0
  9 10  1  0  0  0  0
 10 11  1  0  0  0  0
M  END
>  <Catalog ID>
Z2472814182

>  <PlateID>
1198308-R-SPFL-07

>  <Well>
A02

>  <MW (desalted)>
151.209

>  <ClogP>
-0.128

>  <HBD>
1

>  <TPSA>
43.840

>  <RotBonds>
2

$$$$

            

 13 14  0  0  0  0            999 V2000
    0.7145   -0.4125    0.0000 N   0  0  0  0  0  0  0  0  0  0  0  0
    0.7145   -1.2375    0.0000 C   0  0  0  0  0  0  0  0  0  0  0  0
    1.3819   -1.7224    0.0000 N   0  0  0  0  0  0  0  0  0  0  0  0
    1.1270   -2.5070    0.0000 O   0  0  0  0  0  0  0  0  0  0  0  0
    0.3020   -2.5070    0.0000 C   0  0  0  0  0  0  0  0  0  0  0  0
    0.0470   -1.7224    0.0000 C   0  0  0  0  0  0  0  0  0  0  0  0
   -0.7376   -1.4675    0.0000 C   0  0  0  0  0  0  0  0  0  0  0  0
   -1.3507   -2.0195    0.0000 C   0  0  0  0  0  0  0  0  0  0  0  0
   -2.1353   -1.7646    0.0000 C   0  0  0  0  0  0  0  0  0  0  0  0
   -2.3068   -0.9576    0.0000 C   0  0  0  0  0  0  0  0  0  0  0  0
   -1.6937   -0.4056    0.0000 C   0  0  0  0  0  0  0  0  0  0  0  0
   -0.9091   -0.6605    0.0000 C   0  0  0  0  0  0  0  0  0  0  0  0
   -0.2960   -0.1085    0.0000 F   0  0  0  0  0  0  0  0  0  0  0  0
  1  2  1  0  0  0  0
  2  3  2  0  0  0  0
  3  4  1  0  0  0  0
  4  5  1  0  0  0  0
  5  6  2  0  0  0  0
  2  6  1  0  0  0  0
  6  7  1  0  0  0  0
  7  8  2  0  0  0  0
  8  9  1  0  0  0  0
  9 10  2  0  0  0  0
 10 11  1  0  0  0  0
 11 12  2  0  0  0  0
  7 12  1  0  0  0  0
 12 13  1  0  0  0  0
M  END
>  <Catalog ID>
Z1251353340

>  <PlateID>
1198308-R-SPFL-07

>  <Well>
A03

>  <MW (desalted)>
178.163

>  <ClogP>
1.816

>  <HBD>
1

>  <TPSA>
52.050

>  <RotBonds>
1

$$$$

            

 12 13  0  0  0  0            999 V2000
   -0.6078   -0.4741    0.0000 C   0  0  0  0  0  0  0  0  0  0  0  0
   -1.3222   -0.0616    0.0000 N   0  0  0  0  0  0  0  0  0  0  0  0
   -2.0367   -0.4741    0.0000 C   0  0  0  0  0  0  0  0  0  0  0  0
   -2.7512   -0.0616    0.0000 C   0  0  0  0  0  0  0  0  0  0  0  0
   -2.7512    0.7634    0.0000 N   0  0  0  0  0  0  0  0  0  0  0  0
   -2.0367    1.1759    0.0000 C   0  0  0  0  0  0  0  0  0  0  0  0
   -1.3222    0.7634    0.0000 C   0  0  0  0  0  0  0  0  0  0  0  0
   -0.6078   -1.2991    0.0000 C   0  0  0  0  0  0  0  0  0  0  0  0
    0.0597   -1.7840    0.0000 C   0  0  0  0  0  0  0  0  0  0  0  0
   -0.1953   -2.5687    0.0000 S   0  0  0  0  0  0  0  0  0  0  0  0
   -1.0203   -2.5687    0.0000 C   0  0  0  0  0  0  0  0  0  0  0  0
   -1.2752   -1.7840    0.0000 N   0  0  0  0  0  0  0  0  0  0  0  0
  1  2  1  0  0  0  0
  2  3  1  0  0  0  0
  3  4  1  0  0  0  0
  4  5  1  0  0  0  0
  5  6  1  0  0  0  0
  6  7  1  0  0  0  0
  2  7  1  0  0  0  0
  1  8  1  0  0  0  0
  8  9  2  0  0  0  0
  9 10  1  0  0  0  0
 10 11  1  0  0  0  0
 11 12  2  0  0  0  0
  8 12  1  0  0  0  0
M  END
>  <Catalog ID>
Z352249280

>  <PlateID>
1198308-R-SPFL-07

>  <Well>
A04

>  <MW (desalted)>
183.274

>  <ClogP>
0.219

>  <HBD>
1

>  <TPSA>
28.160

>  <RotBonds>
2

$$$$

            

 13 14  0  0  0  0            999 V2000
    1.4289   -0.0000    0.0000 N   0  0  0  0  0  0  0  0  0  0  0  0
    0.7145   -0.4125    0.0000 C   0  0  0  0  0  0  0  0  0  0  0  0
    0.7145   -1.2375    0.0000 C   0  0  0  0  0  0  0  0  0  0  0  0
    1.3819   -1.7224    0.0000 C   0  0  0  0  0  0  0  0  0  0  0  0
    1.1270   -2.5070    0.0000 N   0  0  0  0  0  0  0  0  0  0  0  0
    0.3020   -2.5070    0.0000 N   0  0  0  0  0  0  0  0  0  0  0  0
    0.0470   -1.7224    0.0000 C   0  0  0  0  0  0  0  0  0  0  0  0
   -0.1830   -3.1745    0.0000 C   0  0  0  0  0  0  0  0  0  0  0  0
    0.1526   -3.9282    0.0000 C   0  0  0  0  0  0  0  0  0  0  0  0
   -0.3323   -4.5956    0.0000 C   0  0  0  0  0  0  0  0  0  0  0  0
   -1.1528   -4.5094    0.0000 C   0  0  0  0  0  0  0  0  0  0  0  0
   -1.4884   -3.7557    0.0000 C   0  0  0  0  0  0  0  0  0  0  0  0
   -1.0034   -3.0882    0.0000 C   0  0  0  0  0  0  0  0  0  0  0  0
  1  2  1  0  0  0  0
  2  3  1  0  0  0  0
  3  4  1  0  0  0  0
  4  5  2  0  0  0  0
  5  6  1  0  0  0  0
  6  7  1  0  0  0  0
  3  7  2  0  0  0  0
  6  8  1  0  0  0  0
  8  9  2  0  0  0  0
  9 10  1  0  0  0  0
 10 11  2  0  0  0  0
 11 12  1  0  0  0  0
 12 13  2  0  0  0  0
  8 13  1  0  0  0  0
M  END
>  <Catalog ID>
Z220588542

>  <PlateID>
1198308-R-SPFL-07

>  <Well>
A05

>  <MW (desalted)>
173.214

>  <ClogP>
1.148

>  <HBD>
1

>  <TPSA>
43.840

>  <RotBonds>
2

$$$$

            

 13 14  0  0  0  0            999 V2000
    0.7145   -0.4125    0.0000 C   0  0  0  0  0  0  0  0  0  0  0  0
    0.7145   -1.2375    0.0000 C   0  0  0  0  0  0  0  0  0  0  0  0
    1.3819   -1.7224    0.0000 N   0  0  0  0  0  0  0  0  0  0  0  0
    1.1270   -2.5070    0.0000 O   0  0  0  0  0  0  0  0  0  0  0  0
    0.3020   -2.5070    0.0000 C   0  0  0  0  0  0  0  0  0  0  0  0
   -0.1830   -3.1745    0.0000 N   0  0  0  0  0  0  0  0  0  0  0  0
    0.0470   -1.7224    0.0000 C   0  0  0  0  0  0  0  0  0  0  0  0
   -0.7376   -1.4675    0.0000 C   0  0  0  0  0  0  0  0  0  0  0  0
   -1.3507   -2.0195    0.0000 C   0  0  0  0  0  0  0  0  0  0  0  0
   -2.1353   -1.7646    0.0000 C   0  0  0  0  0  0  0  0  0  0  0  0
   -2.3068   -0.9576    0.0000 C   0  0  0  0  0  0  0  0  0  0  0  0
   -1.6937   -0.4056    0.0000 C   0  0  0  0  0  0  0  0  0  0  0  0
   -0.9091   -0.6605    0.0000 C   0  0  0  0  0  0  0  0  0  0  0  0
  1  2  1  0  0  0  0
  2  3  2  0  0  0  0
  3  4  1  0  0  0  0
  4  5  1  0  0  0  0
  5  6  1  0  0  0  0
  5  7  2  0  0  0  0
  2  7  1  0  0  0  0
  7  8  1  0  0  0  0
  8  9  2  0  0  0  0
  9 10  1  0  0  0  0
 10 11  1  0  0  0  0
 11 12  1  0  0  0  0
 12 13  1  0  0  0  0
  8 13  1  0  0  0  0
M  END
>  <Catalog ID>
Z317081714

>  <PlateID>
1198308-R-SPFL-07

>  <Well>
A06

>  <MW (desalted)>
178.231

>  <ClogP>
2.354

>  <HBD>
1

>  <TPSA>
52.050

>  <RotBonds>
1

$$$$

            

 12 13  0  0  0  0            999 V2000
   -0.6078   -0.4741    0.0000 C   0  0  0  0  0  0  0  0  0  0  0  0
   -1.3222   -0.0616    0.0000 N   0  0  0  0  0  0  0  0  0  0  0  0
   -2.0367   -0.4741    0.0000 C   0  0  0  0  0  0  0  0  0  0  0  0
   -2.7512   -0.0616    0.0000 C   0  0  0  0  0  0  0  0  0  0  0  0
   -2.7512    0.7634    0.0000 N   0  0  0  0  0  0  0  0  0  0  0  0
   -2.0367    1.1759    0.0000 C   0  0  0  0  0  0  0  0  0  0  0  0
   -1.3222    0.7634    0.0000 C   0  0  0  0  0  0  0  0  0  0  0  0
   -0.6078   -1.2991    0.0000 C   0  0  0  0  0  0  0  0  0  0  0  0
    0.0597   -1.7840    0.0000 C   0  0  0  0  0  0  0  0  0  0  0  0
   -0.1953   -2.5687    0.0000 C   0  0  0  0  0  0  0  0  0  0  0  0
   -1.0203   -2.5687    0.0000 C   0  0  0  0  0  0  0  0  0  0  0  0
   -1.2752   -1.7840    0.0000 O   0  0  0  0  0  0  0  0  0  0  0  0
  1  2  1  0  0  0  0
  2  3  1  0  0  0  0
  3  4  1  0  0  0  0
  4  5  1  0  0  0  0
  5  6  1  0  0  0  0
  6  7  1  0  0  0  0
  2  7  1  0  0  0  0
  1  8  1  0  0  0  0
  8  9  2  0  0  0  0
  9 10  1  0  0  0  0
 10 11  2  0  0  0  0
 11 12  1  0  0  0  0
  8 12  1  0  0  0  0
M  END
>  <Catalog ID>
Z155070350

>  <PlateID>
1198308-R-SPFL-07

>  <Well>
A07

>  <MW (desalted)>
166.220

>  <ClogP>
1.051

>  <HBD>
1

>  <TPSA>
28.410

>  <RotBonds>
2

$$$$

            

 13 14  0  0  0  0            999 V2000
    2.0367   -0.4741    0.0000 N   0  0  0  0  0  0  0  0  0  0  0  0
    2.0367   -1.2991    0.0000 C   0  0  0  0  0  0  0  0  0  0  0  0
    2.7041   -1.7840    0.0000 C   0  0  0  0  0  0  0  0  0  0  0  0
    2.4492   -2.5687    0.0000 C   0  0  0  0  0  0  0  0  0  0  0  0
    1.6242   -2.5687    0.0000 N   0  0  0  0  0  0  0  0  0  0  0  0
    1.1393   -3.2361    0.0000 C   0  0  0  0  0  0  0  0  0  0  0  0
    0.3188   -3.1499    0.0000 C   0  0  0  0  0  0  0  0  0  0  0  0
   -0.1661   -3.8173    0.0000 C   0  0  0  0  0  0  0  0  0  0  0  0
   -0.9866   -3.7311    0.0000 C   0  0  0  0  0  0  0  0  0  0  0  0
   -1.3222   -2.9774    0.0000 C   0  0  0  0  0  0  0  0  0  0  0  0
   -0.8372   -2.3099    0.0000 C   0  0  0  0  0  0  0  0  0  0  0  0
   -0.0168   -2.3962    0.0000 C   0  0  0  0  0  0  0  0  0  0  0  0
    1.3693   -1.7840    0.0000 C   0  0  0  0  0  0  0  0  0  0  0  0
  1  2  1  0  0  0  0
  2  3  1  0  0  0  0
  3  4  1  0  0  0  0
  4  5  1  0  0  0  0
  5  6  1  0  0  0  0
  6  7  1  0  0  0  0
  7  8  2  0  0  0  0
  8  9  1  0  0  0  0
  9 10  2  0  0  0  0
 10 11  1  0  0  0  0
 11 12  2  0  0  0  0
  7 12  1  0  0  0  0
  5 13  1  0  0  0  0
  2 13  1  0  0  0  0
M  END
>  <Catalog ID>
Z104493644

>  <PlateID>
1198308-R-SPFL-07

>  <Well>
A08

>  <MW (desalted)>
176.258

>  <ClogP>
1.433

>  <HBD>
1

>  <TPSA>
29.260

>  <RotBonds>
2

$$$$

            

 11 12  0  0  0  0            999 V2000
    0.3020   -2.5070    0.0000 C   0  0  0  0  0  0  0  0  0  0  0  0
    0.0470   -1.7224    0.0000 C   0  0  0  0  0  0  0  0  0  0  0  0
    0.7145   -1.2375    0.0000 C   0  0  0  0  0  0  0  0  0  0  0  0
    1.3819   -1.7224    0.0000 C   0  0  0  0  0  0  0  0  0  0  0  0
    1.1270   -2.5070    0.0000 N   0  0  0  0  0  0  0  0  0  0  0  0
    0.7145   -0.4125    0.0000 C   0  0  0  0  0  0  0  0  0  0  0  0
    0.0000    0.0000    0.0000 C   0  0  0  0  0  0  0  0  0  0  0  0
    0.0000    0.8250    0.0000 C   0  0  0  0  0  0  0  0  0  0  0  0
    0.7145    1.2375    0.0000 C   0  0  0  0  0  0  0  0  0  0  0  0
    1.4289    0.8250    0.0000 C   0  0  0  0  0  0  0  0  0  0  0  0
    1.4289    0.0000    0.0000 C   0  0  0  0  0  0  0  0  0  0  0  0
  1  2  1  0  0  0  0
  2  3  1  0  0  0  0
  3  4  1  0  0  0  0
  4  5  1  0  0  0  0
  1  5  1  0  0  0  0
  3  6  1  0  0  0  0
  6  7  2  0  0  0  0
  7  8  1  0  0  0  0
  8  9  2  0  0  0  0
  9 10  1  0  0  0  0
 10 11  2  0  0  0  0
  6 11  1  0  0  0  0
M  END
>  <Catalog ID>
Z926900322

>  <PlateID>
1198308-R-SPFL-07

>  <Well>
A09

>  <MW (desalted)>
147.217

>  <ClogP>
1.934

>  <HBD>
1

>  <TPSA>
12.030

>  <RotBonds>
1

$$$$

            

 11 12  0  0  0  0            999 V2000
    0.3020   -2.5070    0.0000 C   0  0  0  0  0  0  0  0  0  0  0  0
    0.0470   -1.7224    0.0000 C   0  0  0  0  0  0  0  0  0  0  0  0
    0.7145   -1.2375    0.0000 C   0  0  0  0  0  0  0  0  0  0  0  0
    1.3819   -1.7224    0.0000 C   0  0  0  0  0  0  0  0  0  0  0  0
    1.1270   -2.5070    0.0000 N   0  0  0  0  0  0  0  0  0  0  0  0
    0.7145   -0.4125    0.0000 C   0  0  0  0  0  0  0  0  0  0  0  0
    0.0000    0.0000    0.0000 C   0  0  0  0  0  0  0  0  0  0  0  0
    0.0000    0.8250    0.0000 C   0  0  0  0  0  0  0  0  0  0  0  0
    0.7145    1.2375    0.0000 C   0  0  0  0  0  0  0  0  0  0  0  0
    1.4289    0.8250    0.0000 N   0  0  0  0  0  0  0  0  0  0  0  0
    1.4289    0.0000    0.0000 C   0  0  0  0  0  0  0  0  0  0  0  0
  1  2  1  0  0  0  0
  2  3  1  0  0  0  0
  3  4  1  0  0  0  0
  4  5  1  0  0  0  0
  1  5  1  0  0  0  0
  3  6  1  0  0  0  0
  6  7  2  0  0  0  0
  7  8  1  0  0  0  0
  8  9  2  0  0  0  0
  9 10  1  0  0  0  0
 10 11  2  0  0  0  0
  6 11  1  0  0  0  0
M  END
>  <Catalog ID>
Z940902818

>  <PlateID>
1198308-R-SPFL-07

>  <Well>
A10

>  <MW (desalted)>
148.205

>  <ClogP>
0.437

>  <HBD>
1

>  <TPSA>
24.920

>  <RotBonds>
1

$$$$

            

 12 12  0  0  0  0            999 V2000
    0.0000    0.0000    0.0000 Cl  0  0  0  0  0  0  0  0  0  0  0  0
    3.5239   -1.3462    0.0000 C   0  0  0  0  0  0  0  0  0  0  0  0
    2.9405   -1.9296    0.0000 N   0  0  0  0  0  0  0  0  0  0  0  0
    2.3571   -1.3462    0.0000 C   0  0  0  0  0  0  0  0  0  0  0  0
    2.9405   -0.7629    0.0000 C   0  0  0  0  0  0  0  0  0  0  0  0
    2.9405    0.0621    0.0000 O   0  0  0  0  0  0  0  0  0  0  0  0
    3.6550    0.4746    0.0000 C   0  0  0  0  0  0  0  0  0  0  0  0
    3.6550    1.2996    0.0000 C   0  0  0  0  0  0  0  0  0  0  0  0
    4.3694    1.7121    0.0000 C   0  0  0  0  0  0  0  0  0  0  0  0
    5.0839    1.2996    0.0000 C   0  0  0  0  0  0  0  0  0  0  0  0
    5.0839    0.4746    0.0000 C   0  0  0  0  0  0  0  0  0  0  0  0
    4.3694    0.0621    0.0000 C   0  0  0  0  0  0  0  0  0  0  0  0
  2  3  1  0  0  0  0
  3  4  1  0  0  0  0
  4  5  1  0  0  0  0
  2  5  1  0  0  0  0
  5  6  1  0  0  0  0
  6  7  1  0  0  0  0
  7  8  2  0  0  0  0
  8  9  1  0  0  0  0
  9 10  2  0  0  0  0
 10 11  1  0  0  0  0
 11 12  2  0  0  0  0
  7 12  1  0  0  0  0
M  END
>  <Catalog ID>
Z1263529553

>  <PlateID>
1198308-R-SPFL-07

>  <Well>
A11

>  <MW (desalted)>
149.190

>  <ClogP>
1.650

>  <HBD>
1

>  <TPSA>
21.260

>  <RotBonds>
2

$$$$

            

 13 14  0  0  0  0            999 V2000
    1.4289   -2.4750    0.0000 C   0  0  0  0  0  0  0  0  0  0  0  0
    1.4289   -1.6500    0.0000 N   0  0  0  0  0  0  0  0  0  0  0  0
    0.7145   -1.2375    0.0000 C   0  0  0  0  0  0  0  0  0  0  0  0
    0.7145   -0.4125    0.0000 C   0  0  0  0  0  0  0  0  0  0  0  0
    0.0000    0.0000    0.0000 C   0  0  0  0  0  0  0  0  0  0  0  0
    0.0000    0.8250    0.0000 N   0  0  0  0  0  0  0  0  0  0  0  0
    1.4289    0.0000    0.0000 C   0  0  0  0  0  0  0  0  0  0  0  0
    2.1434   -0.4125    0.0000 C   0  0  0  0  0  0  0  0  0  0  0  0
    2.8579    0.0000    0.0000 C   0  0  0  0  0  0  0  0  0  0  0  0
    3.5724   -0.4125    0.0000 C   0  0  0  0  0  0  0  0  0  0  0  0
    3.5724   -1.2375    0.0000 C   0  0  0  0  0  0  0  0  0  0  0  0
    2.8579   -1.6500    0.0000 C   0  0  0  0  0  0  0  0  0  0  0  0
    2.1434   -1.2375    0.0000 C   0  0  0  0  0  0  0  0  0  0  0  0
  1  2  1  0  0  0  0
  2  3  1  0  0  0  0
  3  4  1  0  0  0  0
  4  5  1  0  0  0  0
  5  6  1  0  0  0  0
  4  7  1  0  0  0  0
  7  8  1  0  0  0  0
  8  9  2  0  0  0  0
  9 10  1  0  0  0  0
 10 11  2  0  0  0  0
 11 12  1  0  0  0  0
 12 13  2  0  0  0  0
  2 13  1  0  0  0  0
  8 13  1  0  0  0  0
M  END
>  <Catalog ID>
Z359510196

>  <PlateID>
1198308-R-SPFL-07

>  <Well>
B02

>  <MW (desalted)>
176.258

>  <ClogP>
2.002

>  <HBD>
1

>  <TPSA>
29.260

>  <RotBonds>
1

$$$$

            

 12 13  0  0  0  0            999 V2000
    0.0000   -2.4750    0.0000 C   0  0  0  0  0  0  0  0  0  0  0  0
    0.0000   -1.6500    0.0000 O   0  0  0  0  0  0  0  0  0  0  0  0
    0.7145   -1.2375    0.0000 C   0  0  0  0  0  0  0  0  0  0  0  0
    0.7145   -0.4125    0.0000 C   0  0  0  0  0  0  0  0  0  0  0  0
    1.4289    0.0000    0.0000 C   0  0  0  0  0  0  0  0  0  0  0  0
    2.1434   -0.4125    0.0000 C   0  0  0  0  0  0  0  0  0  0  0  0
    2.8579    0.0000    0.0000 O   0  0  0  0  0  0  0  0  0  0  0  0
    3.5724   -0.4125    0.0000 C   0  0  0  0  0  0  0  0  0  0  0  0
    3.5724   -1.2375    0.0000 C   0  0  0  0  0  0  0  0  0  0  0  0
    2.8579   -1.6500    0.0000 N   0  0  0  0  0  0  0  0  0  0  0  0
    2.1434   -1.2375    0.0000 C   0  0  0  0  0  0  0  0  0  0  0  0
    1.4289   -1.6500    0.0000 C   0  0  0  0  0  0  0  0  0  0  0  0
  1  2  1  0  0  0  0
  2  3  1  0  0  0  0
  3  4  2  0  0  0  0
  4  5  1  0  0  0  0
  5  6  2  0  0  0  0
  6  7  1  0  0  0  0
  7  8  1  0  0  0  0
  8  9  1  0  0  0  0
  9 10  1  0  0  0  0
 10 11  1  0  0  0  0
  6 11  1  0  0  0  0
 11 12  2  0  0  0  0
  3 12  1  0  0  0  0
M  END
>  <Catalog ID>
Z1198176666

>  <PlateID>
1198308-R-SPFL-07

>  <Well>
B03

>  <MW (desalted)>
165.189

>  <ClogP>
1.694

>  <HBD>
1

>  <TPSA>
30.490

>  <RotBonds>
1

$$$$

            

 10 10  0  0  0  0            999 V2000
    0.0000    3.3000    0.0000 N   0  0  0  0  0  0  0  0  0  0  0  0
    0.0000    2.4750    0.0000 C   0  0  0  0  0  0  0  0  0  0  0  0
    0.7145    2.0625    0.0000 C   0  0  0  0  0  0  0  0  0  0  0  0
    0.7145    1.2375    0.0000 C   0  0  0  0  0  0  0  0  0  0  0  0
    1.4289    0.8250    0.0000 C   0  0  0  0  0  0  0  0  0  0  0  0
    1.4289   -0.0000    0.0000 C   0  0  0  0  0  0  0  0  0  0  0  0
    0.7145   -0.4125    0.0000 C   0  0  0  0  0  0  0  0  0  0  0  0
    0.7145   -1.2375    0.0000 Cl  0  0  0  0  0  0  0  0  0  0  0  0
    0.0000    0.0000    0.0000 C   0  0  0  0  0  0  0  0  0  0  0  0
    0.0000    0.8250    0.0000 C   0  0  0  0  0  0  0  0  0  0  0  0
  1  2  1  0  0  0  0
  2  3  1  0  0  0  0
  3  4  1  0  0  0  0
  4  5  2  0  0  0  0
  5  6  1  0  0  0  0
  6  7  2  0  0  0  0
  7  8  1  0  0  0  0
  7  9  1  0  0  0  0
  9 10  2  0  0  0  0
  4 10  1  0  0  0  0
M  END
>  <Catalog ID>
Z57051065

>  <PlateID>
1198308-R-SPFL-07

>  <Well>
B04

>  <MW (desalted)>
155.625

>  <ClogP>
2.146

>  <HBD>
1

>  <TPSA>
26.020

>  <RotBonds>
2

$$$$

            

 10 10  0  0  0  0            999 V2000
    0.7145    2.8875    0.0000 C   0  0  0  0  0  0  0  0  0  0  0  0
    0.7145    2.0625    0.0000 S   0  0  0  0  0  0  0  0  0  0  0  0
   -0.1105    2.0625    0.0000 O   0  0  0  0  0  0  0  0  0  0  0  0
    1.5395    2.0625    0.0000 O   0  0  0  0  0  0  0  0  0  0  0  0
    0.7145    1.2375    0.0000 C   0  0  0  0  0  0  0  0  0  0  0  0
    1.4289    0.8250    0.0000 C   0  0  0  0  0  0  0  0  0  0  0  0
    1.4289   -0.0000    0.0000 C   0  0  0  0  0  0  0  0  0  0  0  0
    0.7145   -0.4125    0.0000 C   0  0  0  0  0  0  0  0  0  0  0  0
    0.0000    0.0000    0.0000 C   0  0  0  0  0  0  0  0  0  0  0  0
    0.0000    0.8250    0.0000 N   0  0  0  0  0  0  0  0  0  0  0  0
  1  2  1  0  0  0  0
  2  3  2  0  0  0  0
  2  4  2  0  0  0  0
  2  5  1  0  0  0  0
  5  6  2  0  0  0  0
  6  7  1  0  0  0  0
  7  8  2  0  0  0  0
  8  9  1  0  0  0  0
  9 10  2  0  0  0  0
  5 10  1  0  0  0  0
M  END
>  <Catalog ID>
Z385446520

>  <PlateID>
1198308-R-SPFL-07

>  <Well>
B05

>  <MW (desalted)>
157.190

>  <ClogP>
0.419

>  <HBD>
0

>  <TPSA>
47.030

>  <RotBonds>
1

$$$$

            

 11 12  0  0  0  0            999 V2000
    2.5175   -1.9417    0.0000 C   0  0  0  0  0  0  0  0  0  0  0  0
    1.9341   -2.5250    0.0000 O   0  0  0  0  0  0  0  0  0  0  0  0
    1.3508   -1.9417    0.0000 C   0  0  0  0  0  0  0  0  0  0  0  0
    1.9341   -1.3583    0.0000 C   0  0  0  0  0  0  0  0  0  0  0  0
    1.9341   -0.5333    0.0000 N   0  0  0  0  0  0  0  0  0  0  0  0
    2.6486   -0.1208    0.0000 C   0  0  0  0  0  0  0  0  0  0  0  0
    2.6486    0.7042    0.0000 C   0  0  0  0  0  0  0  0  0  0  0  0
    3.3631    1.1167    0.0000 C   0  0  0  0  0  0  0  0  0  0  0  0
    4.0776    0.7042    0.0000 C   0  0  0  0  0  0  0  0  0  0  0  0
    4.0776   -0.1208    0.0000 C   0  0  0  0  0  0  0  0  0  0  0  0
    3.3631   -0.5333    0.0000 C   0  0  0  0  0  0  0  0  0  0  0  0
  1  2  1  0  0  0  0
  2  3  1  0  0  0  0
  3  4  1  0  0  0  0
  1  4  1  0  0  0  0
  4  5  1  0  0  0  0
  5  6  1  0  0  0  0
  6  7  2  0  0  0  0
  7  8  1  0  0  0  0
  8  9  2  0  0  0  0
  9 10  1  0  0  0  0
 10 11  2  0  0  0  0
  6 11  1  0  0  0  0
M  END
>  <Catalog ID>
Z1142700479

>  <PlateID>
1198308-R-SPFL-07

>  <Well>
B06

>  <MW (desalted)>
149.190

>  <ClogP>
1.434

>  <HBD>
1

>  <TPSA>
21.260

>  <RotBonds>
2

$$$$

            

 14 14  0  0  0  0            999 V2000
    0.0000    0.0000    0.0000 Cl  0  0  0  0  0  0  0  0  0  0  0  0
    4.8030    2.5508    0.0000 N   0  0  0  0  0  0  0  0  0  0  0  0
    4.0885    2.1383    0.0000 C   0  0  0  0  0  0  0  0  0  0  0  0
    4.0885    1.3133    0.0000 C   0  0  0  0  0  0  0  0  0  0  0  0
    4.7560    0.8284    0.0000 C   0  0  0  0  0  0  0  0  0  0  0  0
    4.5010    0.0438    0.0000 C   0  0  0  0  0  0  0  0  0  0  0  0
    3.6760    0.0438    0.0000 N   0  0  0  0  0  0  0  0  0  0  0  0
    3.4211    0.8284    0.0000 N   0  0  0  0  0  0  0  0  0  0  0  0
    3.1911   -0.6237    0.0000 C   0  0  0  0  0  0  0  0  0  0  0  0
    3.5267   -1.3774    0.0000 C   0  0  0  0  0  0  0  0  0  0  0  0
    3.0418   -2.0448    0.0000 C   0  0  0  0  0  0  0  0  0  0  0  0
    2.2213   -1.9586    0.0000 C   0  0  0  0  0  0  0  0  0  0  0  0
    1.8857   -1.2049    0.0000 C   0  0  0  0  0  0  0  0  0  0  0  0
    2.3706   -0.5374    0.0000 C   0  0  0  0  0  0  0  0  0  0  0  0
  2  3  1  0  0  0  0
  3  4  1  0  0  0  0
  4  5  1  0  0  0  0
  5  6  2  0  0  0  0
  6  7  1  0  0  0  0
  7  8  1  0  0  0  0
  4  8  2  0  0  0  0
  7  9  1  0  0  0  0
  9 10  2  0  0  0  0
 10 11  1  0  0  0  0
 11 12  2  0  0  0  0
 12 13  1  0  0  0  0
 13 14  2  0  0  0  0
  9 14  1  0  0  0  0
M  END
>  <Catalog ID>
Z451350740

>  <PlateID>
1198308-R-SPFL-07

>  <Well>
B07

>  <MW (desalted)>
173.214

>  <ClogP>
1.148

>  <HBD>
1

>  <TPSA>
43.840

>  <RotBonds>
2

$$$$

            

 11 12  0  0  1  0            999 V2000
    0.7145   -0.4125    0.0000 O   0  0  0  0  0  0  0  0  0  0  0  0
    0.7145   -1.2375    0.0000 C   0  0  1  0  0  0  0  0  0  0  0  0
    1.2978   -1.8209    0.0000 C   0  0  0  0  0  0  0  0  0  0  0  0
    0.7145   -2.4042    0.0000 C   0  0  2  0  0  0  0  0  0  0  0  0
    0.1311   -1.8209    0.0000 C   0  0  0  0  0  0  0  0  0  0  0  0
    0.7145   -3.2292    0.0000 C   0  0  0  0  0  0  0  0  0  0  0  0
    1.4289   -3.6417    0.0000 C   0  0  0  0  0  0  0  0  0  0  0  0
    1.4289   -4.4667    0.0000 C   0  0  0  0  0  0  0  0  0  0  0  0
    0.7145   -4.8792    0.0000 C   0  0  0  0  0  0  0  0  0  0  0  0
    0.0000   -4.4667    0.0000 C   0  0  0  0  0  0  0  0  0  0  0  0
    0.0000   -3.6417    0.0000 C   0  0  0  0  0  0  0  0  0  0  0  0
  2  1  1  1  0  0  0
  2  3  1  0  0  0  0
  4  3  1  0  0  0  0
  4  5  1  0  0  0  0
  2  5  1  0  0  0  0
  4  6  1  1  0  0  0
  6  7  2  0  0  0  0
  7  8  1  0  0  0  0
  8  9  2  0  0  0  0
  9 10  1  0  0  0  0
 10 11  2  0  0  0  0
  6 11  1  0  0  0  0
M  END
>  <Catalog ID>
Z1504675336

>  <PlateID>
1198308-R-SPFL-07

>  <Well>
B08

>  <MW (desalted)>
148.202

>  <ClogP>
1.557

>  <HBD>
1

>  <TPSA>
20.230

>  <RotBonds>
1

$$$$

            

 11 11  0  0  0  0            999 V2000
    0.0000    2.4750    0.0000 C   0  0  0  0  0  0  0  0  0  0  0  0
    0.7145    2.0625    0.0000 O   0  0  0  0  0  0  0  0  0  0  0  0
    0.7145    1.2375    0.0000 C   0  0  0  0  0  0  0  0  0  0  0  0
    1.4289    0.8250    0.0000 N   0  0  0  0  0  0  0  0  0  0  0  0
    1.4289   -0.0000    0.0000 C   0  0  0  0  0  0  0  0  0  0  0  0
    2.1434   -0.4125    0.0000 C   0  0  0  0  0  0  0  0  0  0  0  0
    0.7145   -0.4125    0.0000 C   0  0  0  0  0  0  0  0  0  0  0  0
    0.0000    0.0000    0.0000 C   0  0  0  0  0  0  0  0  0  0  0  0
    0.0000    0.8250    0.0000 C   0  0  0  0  0  0  0  0  0  0  0  0
   -0.7145    1.2375    0.0000 C   0  0  0  0  0  0  0  0  0  0  0  0
   -1.4289    0.8250    0.0000 N   0  0  0  0  0  0  0  0  0  0  0  0
  1  2  1  0  0  0  0
  2  3  1  0  0  0  0
  3  4  2  0  0  0  0
  4  5  1  0  0  0  0
  5  6  1  0  0  0  0
  5  7  2  0  0  0  0
  7  8  1  0  0  0  0
  8  9  2  0  0  0  0
  3  9  1  0  0  0  0
  9 10  1  0  0  0  0
 10 11  1  0  0  0  0
M  END
>  <Catalog ID>
Z803153228

>  <PlateID>
1198308-R-SPFL-07

>  <Well>
B09

>  <MW (desalted)>
152.194

>  <ClogP>
0.916

>  <HBD>
1

>  <TPSA>
48.140

>  <RotBonds>
2

$$$$

            

 12 13  0  0  0  0            999 V2000
    0.7145   -0.4125    0.0000 N   0  0  0  0  0  0  0  0  0  0  0  0
    0.7145   -1.2375    0.0000 C   0  0  0  0  0  0  0  0  0  0  0  0
    1.3819   -1.7224    0.0000 O   0  0  0  0  0  0  0  0  0  0  0  0
    1.1270   -2.5070    0.0000 N   0  0  0  0  0  0  0  0  0  0  0  0
    0.3020   -2.5070    0.0000 C   0  0  0  0  0  0  0  0  0  0  0  0
    0.0470   -1.7224    0.0000 C   0  0  0  0  0  0  0  0  0  0  0  0
   -0.7376   -1.4675    0.0000 C   0  0  0  0  0  0  0  0  0  0  0  0
   -1.3507   -2.0195    0.0000 C   0  0  0  0  0  0  0  0  0  0  0  0
   -2.1353   -1.7646    0.0000 C   0  0  0  0  0  0  0  0  0  0  0  0
   -2.3068   -0.9576    0.0000 C   0  0  0  0  0  0  0  0  0  0  0  0
   -1.6937   -0.4056    0.0000 C   0  0  0  0  0  0  0  0  0  0  0  0
   -0.9091   -0.6605    0.0000 C   0  0  0  0  0  0  0  0  0  0  0  0
  1  2  1  0  0  0  0
  2  3  1  0  0  0  0
  3  4  1  0  0  0  0
  4  5  2  0  0  0  0
  5  6  1  0  0  0  0
  2  6  2  0  0  0  0
  6  7  1  0  0  0  0
  7  8  2  0  0  0  0
  8  9  1  0  0  0  0
  9 10  2  0  0  0  0
 10 11  1  0  0  0  0
 11 12  2  0  0  0  0
  7 12  1  0  0  0  0
M  END
>  <Catalog ID>
Z815305358

>  <PlateID>
1198308-R-SPFL-07

>  <Well>
B10

>  <MW (desalted)>
160.173

>  <ClogP>
1.657

>  <HBD>
1

>  <TPSA>
52.050

>  <RotBonds>
1

$$$$

            

 12 12  0  0  0  0            999 V2000
    1.4289   -2.4750    0.0000 O   0  0  0  0  0  0  0  0  0  0  0  0
    1.4289   -1.6500    0.0000 C   0  0  0  0  0  0  0  0  0  0  0  0
    2.1434   -1.2375    0.0000 O   0  0  0  0  0  0  0  0  0  0  0  0
    0.7145   -1.2375    0.0000 C   0  0  0  0  0  0  0  0  0  0  0  0
    0.7145   -0.4125    0.0000 C   0  0  0  0  0  0  0  0  0  0  0  0
   -0.0000    0.0000    0.0000 C   0  0  0  0  0  0  0  0  0  0  0  0
    0.0000    0.8250    0.0000 C   0  0  0  0  0  0  0  0  0  0  0  0
    0.7145    1.2375    0.0000 C   0  0  0  0  0  0  0  0  0  0  0  0
    0.1842    1.8695    0.0000 F   0  0  0  0  0  0  0  0  0  0  0  0
    1.2448    1.8695    0.0000 F   0  0  0  0  0  0  0  0  0  0  0  0
    1.4289    0.8250    0.0000 C   0  0  0  0  0  0  0  0  0  0  0  0
    1.4289    0.0000    0.0000 C   0  0  0  0  0  0  0  0  0  0  0  0
  1  2  1  0  0  0  0
  2  3  2  0  0  0  0
  2  4  1  0  0  0  0
  4  5  1  0  0  0  0
  5  6  1  0  0  0  0
  6  7  1  0  0  0  0
  7  8  1  0  0  0  0
  8  9  1  0  0  0  0
  8 10  1  0  0  0  0
  8 11  1  0  0  0  0
 11 12  1  0  0  0  0
  5 12  1  0  0  0  0
M  END
>  <Catalog ID>
Z1198306506

>  <PlateID>
1198308-R-SPFL-07

>  <Well>
B11

>  <MW (desalted)>
178.176

>  <ClogP>
1.842

>  <HBD>
1

>  <TPSA>
37.300

>  <RotBonds>
2

$$$$

            

 13 14  0  0  0  0            999 V2000
    0.7145   -0.4125    0.0000 Cl  0  0  0  0  0  0  0  0  0  0  0  0
    0.7145   -1.2375    0.0000 C   0  0  0  0  0  0  0  0  0  0  0  0
    1.4289   -1.6500    0.0000 C   0  0  0  0  0  0  0  0  0  0  0  0
    1.4289   -2.4750    0.0000 N   0  0  0  0  0  0  0  0  0  0  0  0
    0.7145   -2.8875    0.0000 C   0  0  0  0  0  0  0  0  0  0  0  0
    0.0000   -2.4750    0.0000 N   0  0  0  0  0  0  0  0  0  0  0  0
    0.0000   -1.6500    0.0000 C   0  0  0  0  0  0  0  0  0  0  0  0
    0.7145   -3.7125    0.0000 C   0  0  0  0  0  0  0  0  0  0  0  0
    1.4289   -4.1250    0.0000 C   0  0  0  0  0  0  0  0  0  0  0  0
    1.4289   -4.9500    0.0000 C   0  0  0  0  0  0  0  0  0  0  0  0
    0.7145   -5.3625    0.0000 N   0  0  0  0  0  0  0  0  0  0  0  0
    0.0000   -4.9500    0.0000 C   0  0  0  0  0  0  0  0  0  0  0  0
    0.0000   -4.1250    0.0000 C   0  0  0  0  0  0  0  0  0  0  0  0
  1  2  1  0  0  0  0
  2  3  2  0  0  0  0
  3  4  1  0  0  0  0
  4  5  2  0  0  0  0
  5  6  1  0  0  0  0
  6  7  2  0  0  0  0
  2  7  1  0  0  0  0
  5  8  1  0  0  0  0
  8  9  1  0  0  0  0
  9 10  1  0  0  0  0
 10 11  1  0  0  0  0
 11 12  1  0  0  0  0
 12 13  1  0  0  0  0
  8 13  1  0  0  0  0
M  END
>  <Catalog ID>
Z1198277294

>  <PlateID>
1198308-R-SPFL-07

>  <Well>
C02

>  <MW (desalted)>
197.665

>  <ClogP>
0.640

>  <HBD>
1

>  <TPSA>
37.810

>  <RotBonds>
1

$$$$

            

 14 15  0  0  0  0            999 V2000
    1.4289    0.8250    0.0000 N   0  0  0  0  0  0  0  0  0  0  0  0
    1.4289   -0.0000    0.0000 C   0  0  0  0  0  0  0  0  0  0  0  0
    0.7145   -0.4125    0.0000 C   0  0  0  0  0  0  0  0  0  0  0  0
    0.7145   -1.2375    0.0000 C   0  0  0  0  0  0  0  0  0  0  0  0
    1.3819   -1.7224    0.0000 C   0  0  0  0  0  0  0  0  0  0  0  0
    1.1270   -2.5070    0.0000 C   0  0  0  0  0  0  0  0  0  0  0  0
    0.3020   -2.5070    0.0000 N   0  0  0  0  0  0  0  0  0  0  0  0
    0.0470   -1.7224    0.0000 N   0  0  0  0  0  0  0  0  0  0  0  0
   -0.1830   -3.1745    0.0000 C   0  0  0  0  0  0  0  0  0  0  0  0
    0.1526   -3.9282    0.0000 C   0  0  0  0  0  0  0  0  0  0  0  0
   -0.3323   -4.5956    0.0000 C   0  0  0  0  0  0  0  0  0  0  0  0
   -1.1528   -4.5094    0.0000 C   0  0  0  0  0  0  0  0  0  0  0  0
   -1.4884   -3.7557    0.0000 C   0  0  0  0  0  0  0  0  0  0  0  0
   -1.0034   -3.0882    0.0000 C   0  0  0  0  0  0  0  0  0  0  0  0
  1  2  1  0  0  0  0
  2  3  1  0  0  0  0
  3  4  1  0  0  0  0
  4  5  1  0  0  0  0
  5  6  2  0  0  0  0
  6  7  1  0  0  0  0
  7  8  1  0  0  0  0
  4  8  2  0  0  0  0
  7  9  1  0  0  0  0
  9 10  2  0  0  0  0
 10 11  1  0  0  0  0
 11 12  2  0  0  0  0
 12 13  1  0  0  0  0
 13 14  2  0  0  0  0
  9 14  1  0  0  0  0
M  END
>  <Catalog ID>
Z979736958

>  <PlateID>
1198308-R-SPFL-07

>  <Well>
C03

>  <MW (desalted)>
187.241

>  <ClogP>
1.257

>  <HBD>
1

>  <TPSA>
43.840

>  <RotBonds>
3

$$$$

            

 12 13  0  0  0  0            999 V2000
   -0.5837   -1.4124    0.0000 O   0  0  0  0  0  0  0  0  0  0  0  0
   -0.1712   -0.6979    0.0000 C   0  0  0  0  0  0  0  0  0  0  0  0
   -0.5837    0.0165    0.0000 O   0  0  0  0  0  0  0  0  0  0  0  0
    0.6538   -0.6979    0.0000 C   0  0  0  0  0  0  0  0  0  0  0  0
    1.1387   -0.0305    0.0000 C   0  0  0  0  0  0  0  0  0  0  0  0
    1.9233   -0.2854    0.0000 C   0  0  0  0  0  0  0  0  0  0  0  0
    2.6378    0.1271    0.0000 C   0  0  0  0  0  0  0  0  0  0  0  0
    3.3523   -0.2854    0.0000 C   0  0  0  0  0  0  0  0  0  0  0  0
    3.3523   -1.1104    0.0000 C   0  0  0  0  0  0  0  0  0  0  0  0
    2.6378   -1.5229    0.0000 C   0  0  0  0  0  0  0  0  0  0  0  0
    1.9233   -1.1104    0.0000 N   0  0  0  0  0  0  0  0  0  0  0  0
    1.1387   -1.3654    0.0000 C   0  0  0  0  0  0  0  0  0  0  0  0
  1  2  1  0  0  0  0
  2  3  2  0  0  0  0
  2  4  1  0  0  0  0
  4  5  1  0  0  0  0
  5  6  2  0  0  0  0
  6  7  1  0  0  0  0
  7  8  2  0  0  0  0
  8  9  1  0  0  0  0
  9 10  2  0  0  0  0
 10 11  1  0  0  0  0
  6 11  1  0  0  0  0
 11 12  1  0  0  0  0
  4 12  2  0  0  0  0
M  END
>  <Catalog ID>
Z1184855697

>  <PlateID>
1198308-R-SPFL-07

>  <Well>
C04

>  <MW (desalted)>
161.157

>  <ClogP>
2.504

>  <HBD>
1

>  <TPSA>
41.710

>  <RotBonds>
1

$$$$

            

 11 11  0  0  0  0            999 V2000
    0.0000    3.3000    0.0000 C   0  0  0  0  0  0  0  0  0  0  0  0
    0.0000    2.4750    0.0000 O   0  0  0  0  0  0  0  0  0  0  0  0
    0.7145    2.0625    0.0000 C   0  0  0  0  0  0  0  0  0  0  0  0
    0.7145    1.2375    0.0000 C   0  0  0  0  0  0  0  0  0  0  0  0
    1.4289    0.8250    0.0000 C   0  0  0  0  0  0  0  0  0  0  0  0
    1.4289   -0.0000    0.0000 C   0  0  0  0  0  0  0  0  0  0  0  0
    0.7145   -0.4125    0.0000 C   0  0  0  0  0  0  0  0  0  0  0  0
    0.7145   -1.2375    0.0000 C   0  0  0  0  0  0  0  0  0  0  0  0
    1.4289   -1.6500    0.0000 N   0  0  0  0  0  0  0  0  0  0  0  0
    0.0000    0.0000    0.0000 C   0  0  0  0  0  0  0  0  0  0  0  0
    0.0000    0.8250    0.0000 C   0  0  0  0  0  0  0  0  0  0  0  0
  1  2  1  0  0  0  0
  2  3  1  0  0  0  0
  3  4  1  0  0  0  0
  4  5  2  0  0  0  0
  5  6  1  0  0  0  0
  6  7  2  0  0  0  0
  7  8  1  0  0  0  0
  8  9  1  0  0  0  0
  7 10  1  0  0  0  0
 10 11  2  0  0  0  0
  4 11  1  0  0  0  0
M  END
>  <Catalog ID>
Z240084734

>  <PlateID>
1198308-R-SPFL-07

>  <Well>
C05

>  <MW (desalted)>
151.206

>  <ClogP>
0.892

>  <HBD>
1

>  <TPSA>
35.250

>  <RotBonds>
3

$$$$

            

 11 12  0  0  0  0            999 V2000
    1.1270   -2.5070    0.0000 C   0  0  0  0  0  0  0  0  0  0  0  0
    0.3020   -2.5070    0.0000 N   0  0  0  0  0  0  0  0  0  0  0  0
    0.0470   -1.7224    0.0000 N   0  0  0  0  0  0  0  0  0  0  0  0
    0.7145   -1.2375    0.0000 C   0  0  0  0  0  0  0  0  0  0  0  0
    1.3819   -1.7224    0.0000 O   0  0  0  0  0  0  0  0  0  0  0  0
    0.7145   -0.4125    0.0000 C   0  0  0  0  0  0  0  0  0  0  0  0
    0.0000    0.0000    0.0000 C   0  0  0  0  0  0  0  0  0  0  0  0
    0.0000    0.8250    0.0000 C   0  0  0  0  0  0  0  0  0  0  0  0
    0.7145    1.2375    0.0000 C   0  0  0  0  0  0  0  0  0  0  0  0
    1.4289    0.8250    0.0000 C   0  0  0  0  0  0  0  0  0  0  0  0
    1.4289   -0.0000    0.0000 N   0  0  0  0  0  0  0  0  0  0  0  0
  1  2  2  0  0  0  0
  2  3  1  0  0  0  0
  3  4  2  0  0  0  0
  4  5  1  0  0  0  0
  1  5  1  0  0  0  0
  4  6  1  0  0  0  0
  6  7  2  0  0  0  0
  7  8  1  0  0  0  0
  8  9  2  0  0  0  0
  9 10  1  0  0  0  0
 10 11  2  0  0  0  0
  6 11  1  0  0  0  0
M  END
>  <Catalog ID>
Z55670792

>  <PlateID>
1198308-R-SPFL-07

>  <Well>
C06

>  <MW (desalted)>
147.134

>  <ClogP>
-0.397

>  <HBD>
0

>  <TPSA>
51.810

>  <RotBonds>
1

$$$$

            

 10 11  0  0  0  0            999 V2000
    1.6689   -2.2748    0.0000 C   0  0  0  0  0  0  0  0  0  0  0  0
    0.8439   -2.2748    0.0000 C   0  0  0  0  0  0  0  0  0  0  0  0
    0.5890   -1.4901    0.0000 N   0  0  0  0  0  0  0  0  0  0  0  0
    1.2564   -1.0052    0.0000 C   0  0  0  0  0  0  0  0  0  0  0  0
    1.9239   -1.4901    0.0000 C   0  0  0  0  0  0  0  0  0  0  0  0
    1.2564   -0.1802    0.0000 C   0  0  0  0  0  0  0  0  0  0  0  0
    0.5890    0.3047    0.0000 N   0  0  0  0  0  0  0  0  0  0  0  0
    0.8439    1.0893    0.0000 C   0  0  0  0  0  0  0  0  0  0  0  0
    1.6689    1.0893    0.0000 C   0  0  0  0  0  0  0  0  0  0  0  0
    1.9239    0.3047    0.0000 S   0  0  0  0  0  0  0  0  0  0  0  0
  1  2  1  0  0  0  0
  2  3  1  0  0  0  0
  3  4  1  0  0  0  0
  4  5  1  0  0  0  0
  1  5  1  0  0  0  0
  4  6  1  0  0  0  0
  6  7  2  0  0  0  0
  7  8  1  0  0  0  0
  8  9  2  0  0  0  0
  9 10  1  0  0  0  0
  6 10  1  0  0  0  0
M  END
>  <Catalog ID>
Z979742726

>  <PlateID>
1198308-R-SPFL-07

>  <Well>
C07

>  <MW (desalted)>
154.233

>  <ClogP>
0.278

>  <HBD>
1

>  <TPSA>
24.920

>  <RotBonds>
1

$$$$

            

 14 15  0  0  0  0            999 V2000
    1.5806   -0.8304    0.0000 C   0  0  0  0  0  0  0  0  0  0  0  0
    1.5806   -1.6554    0.0000 C   0  0  0  0  0  0  0  0  0  0  0  0
    2.2481   -2.1403    0.0000 C   0  0  0  0  0  0  0  0  0  0  0  0
    1.9931   -2.9249    0.0000 C   0  0  0  0  0  0  0  0  0  0  0  0
    2.4781   -3.5924    0.0000 C   0  0  0  0  0  0  0  0  0  0  0  0
    2.1425   -4.3460    0.0000 N   0  0  0  0  0  0  0  0  0  0  0  0
    2.6760   -4.9754    0.0000 C   0  0  0  0  0  0  0  0  0  0  0  0
    2.5165   -5.7848    0.0000 C   0  0  0  0  0  0  0  0  0  0  0  0
    1.7843   -6.1649    0.0000 C   0  0  0  0  0  0  0  0  0  0  0  0
    1.0306   -5.8293    0.0000 N   0  0  0  0  0  0  0  0  0  0  0  0
    0.8230   -5.0308    0.0000 C   0  0  0  0  0  0  0  0  0  0  0  0
    1.3179   -4.3707    0.0000 C   0  0  0  0  0  0  0  0  0  0  0  0
    1.1681   -2.9249    0.0000 N   0  0  0  0  0  0  0  0  0  0  0  0
    0.9132   -2.1403    0.0000 O   0  0  0  0  0  0  0  0  0  0  0  0
  1  2  1  0  0  0  0
  2  3  2  0  0  0  0
  3  4  1  0  0  0  0
  4  5  1  0  0  0  0
  5  6  1  0  0  0  0
  6  7  1  0  0  0  0
  7  8  1  0  0  0  0
  8  9  1  0  0  0  0
  9 10  1  0  0  0  0
 10 11  1  0  0  0  0
 11 12  1  0  0  0  0
  6 12  1  0  0  0  0
  4 13  2  0  0  0  0
 13 14  1  0  0  0  0
  2 14  1  0  0  0  0
M  END
>  <Catalog ID>
Z352249302

>  <PlateID>
1198308-R-SPFL-07

>  <Well>
C08

>  <MW (desalted)>
195.261

>  <ClogP>
0.120

>  <HBD>
1

>  <TPSA>
41.300

>  <RotBonds>
2

$$$$

            

 12 12  0  0  1  0            999 V2000
    0.0000    0.0000    0.0000 Cl  0  0  0  0  0  0  0  0  0  0  0  0
    2.9405    2.4985    0.0000 N   0  0  0  0  0  0  0  0  0  0  0  0
    2.9405    1.6735    0.0000 C   0  0  1  0  0  0  0  0  0  0  0  0
    3.5239    1.0902    0.0000 C   0  0  0  0  0  0  0  0  0  0  0  0
    2.9405    0.5068    0.0000 C   0  0  2  0  0  0  0  0  0  0  0  0
    2.3571    1.0902    0.0000 C   0  0  0  0  0  0  0  0  0  0  0  0
    2.9405   -0.3182    0.0000 C   0  0  0  0  0  0  0  0  0  0  0  0
    3.6550   -0.7307    0.0000 C   0  0  0  0  0  0  0  0  0  0  0  0
    3.6550   -1.5557    0.0000 C   0  0  0  0  0  0  0  0  0  0  0  0
    2.9405   -1.9682    0.0000 C   0  0  0  0  0  0  0  0  0  0  0  0
    2.2260   -1.5557    0.0000 C   0  0  0  0  0  0  0  0  0  0  0  0
    2.2260   -0.7307    0.0000 C   0  0  0  0  0  0  0  0  0  0  0  0
  3  2  1  1  0  0  0
  3  4  1  0  0  0  0
  5  4  1  0  0  0  0
  5  6  1  0  0  0  0
  3  6  1  0  0  0  0
  5  7  1  1  0  0  0
  7  8  2  0  0  0  0
  8  9  1  0  0  0  0
  9 10  2  0  0  0  0
 10 11  1  0  0  0  0
 11 12  2  0  0  0  0
  7 12  1  0  0  0  0
M  END
>  <Catalog ID>
Z2301685508

>  <PlateID>
1198308-R-SPFL-07

>  <Well>
C09

>  <MW (desalted)>
147.217

>  <ClogP>
1.657

>  <HBD>
1

>  <TPSA>
26.020

>  <RotBonds>
1

$$$$

            

 10 10  0  0  0  0            999 V2000
   -0.9678    1.3657    0.0000 O   0  0  0  0  0  0  0  0  0  0  0  0
   -0.1709    1.5792    0.0000 C   0  0  0  0  0  0  0  0  0  0  0  0
    0.4125    0.9959    0.0000 C   0  0  0  0  0  0  0  0  0  0  0  0
    0.9959    0.4125    0.0000 C   0  0  0  0  0  0  0  0  0  0  0  0
    0.4125   -0.1709    0.0000 C   0  0  0  0  0  0  0  0  0  0  0  0
   -0.1709    0.4125    0.0000 C   0  0  0  0  0  0  0  0  0  0  0  0
    0.9959    1.5792    0.0000 C   0  0  0  0  0  0  0  0  0  0  0  0
    1.5792    2.1626    0.0000 F   0  0  0  0  0  0  0  0  0  0  0  0
    1.5792    0.9959    0.0000 F   0  0  0  0  0  0  0  0  0  0  0  0
    0.4125    2.1626    0.0000 F   0  0  0  0  0  0  0  0  0  0  0  0
  1  2  1  0  0  0  0
  2  3  1  0  0  0  0
  3  4  1  0  0  0  0
  4  5  1  0  0  0  0
  5  6  1  0  0  0  0
  3  6  1  0  0  0  0
  3  7  1  0  0  0  0
  7  8  1  0  0  0  0
  7  9  1  0  0  0  0
  7 10  1  0  0  0  0
M  END
>  <Catalog ID>
Z1896574660

>  <PlateID>
1198308-R-SPFL-07

>  <Well>
C10

>  <MW (desalted)>
154.130

>  <ClogP>
0.911

>  <HBD>
1

>  <TPSA>
20.230

>  <RotBonds>
2

$$$$

            

 15 15  0  0  0  0            999 V2000
    0.0000    0.0000    0.0000 Cl  0  0  0  0  0  0  0  0  0  0  0  0
    2.6002    0.2063    0.0000 C   0  0  0  0  0  0  0  0  0  0  0  0
    3.3147   -0.2063    0.0000 O   0  0  0  0  0  0  0  0  0  0  0  0
    3.3147   -1.0313    0.0000 C   0  0  0  0  0  0  0  0  0  0  0  0
    4.0291   -1.4438    0.0000 C   0  0  0  0  0  0  0  0  0  0  0  0
    4.0291   -2.2688    0.0000 C   0  0  0  0  0  0  0  0  0  0  0  0
    3.3147   -2.6813    0.0000 N   0  0  0  0  0  0  0  0  0  0  0  0
    2.6002   -2.2687    0.0000 C   0  0  0  0  0  0  0  0  0  0  0  0
    2.6002   -1.4437    0.0000 C   0  0  0  0  0  0  0  0  0  0  0  0
    2.6002    1.0313    0.0000 C   0  0  0  0  0  0  0  0  0  0  0  0
    1.8857    1.4438    0.0000 C   0  0  0  0  0  0  0  0  0  0  0  0
    1.8857    2.2688    0.0000 C   0  0  0  0  0  0  0  0  0  0  0  0
    2.6002    2.6813    0.0000 C   0  0  0  0  0  0  0  0  0  0  0  0
    3.3147    2.2687    0.0000 C   0  0  0  0  0  0  0  0  0  0  0  0
    3.3147    1.4437    0.0000 C   0  0  0  0  0  0  0  0  0  0  0  0
  2  3  1  0  0  0  0
  3  4  1  0  0  0  0
  4  5  1  0  0  0  0
  5  6  1  0  0  0  0
  6  7  1  0  0  0  0
  7  8  1  0  0  0  0
  8  9  1  0  0  0  0
  4  9  1  0  0  0  0
  2 10  1  0  0  0  0
 10 11  2  0  0  0  0
 11 12  1  0  0  0  0
 12 13  2  0  0  0  0
 13 14  1  0  0  0  0
 14 15  2  0  0  0  0
 10 15  1  0  0  0  0
M  END
>  <Catalog ID>
Z1891773730

>  <PlateID>
1198308-R-SPFL-07

>  <Well>
C11

>  <MW (desalted)>
191.269

>  <ClogP>
1.412

>  <HBD>
1

>  <TPSA>
21.260

>  <RotBonds>
3

$$$$

            

 16 17  0  0  0  0            999 V2000
    0.8662   -0.4179    0.0000 C   0  0  0  0  0  0  0  0  0  0  0  0
    1.5806   -0.8304    0.0000 C   0  0  0  0  0  0  0  0  0  0  0  0
    2.2951   -0.4179    0.0000 C   0  0  0  0  0  0  0  0  0  0  0  0
    1.5806   -1.6554    0.0000 N   0  0  0  0  0  0  0  0  0  0  0  0
    2.2481   -2.1403    0.0000 C   0  0  0  0  0  0  0  0  0  0  0  0
    1.9931   -2.9249    0.0000 C   0  0  0  0  0  0  0  0  0  0  0  0
    2.4781   -3.5924    0.0000 C   0  0  0  0  0  0  0  0  0  0  0  0
    2.1425   -4.3460    0.0000 N   0  0  0  0  0  0  0  0  0  0  0  0
    2.6760   -4.9754    0.0000 C   0  0  0  0  0  0  0  0  0  0  0  0
    2.5165   -5.7848    0.0000 C   0  0  0  0  0  0  0  0  0  0  0  0
    1.7843   -6.1649    0.0000 C   0  0  0  0  0  0  0  0  0  0  0  0
    1.0306   -5.8293    0.0000 N   0  0  0  0  0  0  0  0  0  0  0  0
    0.8230   -5.0308    0.0000 C   0  0  0  0  0  0  0  0  0  0  0  0
    1.3179   -4.3707    0.0000 C   0  0  0  0  0  0  0  0  0  0  0  0
    1.1681   -2.9249    0.0000 C   0  0  0  0  0  0  0  0  0  0  0  0
    0.9132   -2.1403    0.0000 N   0  0  0  0  0  0  0  0  0  0  0  0
  1  2  1  0  0  0  0
  2  3  1  0  0  0  0
  2  4  1  0  0  0  0
  4  5  1  0  0  0  0
  5  6  2  0  0  0  0
  6  7  1  0  0  0  0
  7  8  1  0  0  0  0
  8  9  1  0  0  0  0
  9 10  1  0  0  0  0
 10 11  1  0  0  0  0
 11 12  1  0  0  0  0
 12 13  1  0  0  0  0
 13 14  1  0  0  0  0
  8 14  1  0  0  0  0
  6 15  1  0  0  0  0
 15 16  2  0  0  0  0
  4 16  1  0  0  0  0
M  END
>  <Catalog ID>
Z1138834262

>  <PlateID>
1198308-R-SPFL-07

>  <Well>
D02

>  <MW (desalted)>
222.330

>  <ClogP>
0.825

>  <HBD>
1

>  <TPSA>
33.090

>  <RotBonds>
3

$$$$

            

 14 15  0  0  0  0            999 V2000
    1.4289   -3.3000    0.0000 F   0  0  0  0  0  0  0  0  0  0  0  0
    1.4289   -2.4750    0.0000 C   0  0  0  0  0  0  0  0  0  0  0  0
    2.2539   -2.4750    0.0000 F   0  0  0  0  0  0  0  0  0  0  0  0
    0.6039   -2.4750    0.0000 F   0  0  0  0  0  0  0  0  0  0  0  0
    1.4289   -1.6500    0.0000 C   0  0  0  0  0  0  0  0  0  0  0  0
    0.7145   -1.2375    0.0000 C   0  0  0  0  0  0  0  0  0  0  0  0
    0.7145   -0.4125    0.0000 C   0  0  0  0  0  0  0  0  0  0  0  0
    1.4289    0.0000    0.0000 C   0  0  0  0  0  0  0  0  0  0  0  0
    2.1434   -0.4125    0.0000 C   0  0  0  0  0  0  0  0  0  0  0  0
    2.8579    0.0000    0.0000 N   0  0  0  0  0  0  0  0  0  0  0  0
    3.5724   -0.4125    0.0000 C   0  0  0  0  0  0  0  0  0  0  0  0
    3.5724   -1.2375    0.0000 C   0  0  0  0  0  0  0  0  0  0  0  0
    2.8579   -1.6500    0.0000 O   0  0  0  0  0  0  0  0  0  0  0  0
    2.1434   -1.2375    0.0000 C   0  0  0  0  0  0  0  0  0  0  0  0
  1  2  1  0  0  0  0
  2  3  1  0  0  0  0
  2  4  1  0  0  0  0
  2  5  1  0  0  0  0
  5  6  2  0  0  0  0
  6  7  1  0  0  0  0
  7  8  2  0  0  0  0
  8  9  1  0  0  0  0
  9 10  1  0  0  0  0
 10 11  1  0  0  0  0
 11 12  1  0  0  0  0
 12 13  1  0  0  0  0
 13 14  1  0  0  0  0
  5 14  1  0  0  0  0
  9 14  2  0  0  0  0
M  END
>  <Catalog ID>
Z1269176341

>  <PlateID>
1198308-R-SPFL-07

>  <Well>
D03

>  <MW (desalted)>
203.161

>  <ClogP>
3.026

>  <HBD>
1

>  <TPSA>
21.260

>  <RotBonds>
1

$$$$

            

 13 14  0  0  0  0            999 V2000
    0.0768   -2.3215    0.0000 C   0  0  0  0  0  0  0  0  0  0  0  0
    0.8838   -2.1500    0.0000 C   0  0  0  0  0  0  0  0  0  0  0  0
    1.4358   -2.7631    0.0000 C   0  0  0  0  0  0  0  0  0  0  0  0
    1.1387   -1.3654    0.0000 C   0  0  0  0  0  0  0  0  0  0  0  0
    0.6538   -0.6979    0.0000 N   0  0  0  0  0  0  0  0  0  0  0  0
    1.1387   -0.0305    0.0000 N   0  0  0  0  0  0  0  0  0  0  0  0
    1.9233   -0.2854    0.0000 C   0  0  0  0  0  0  0  0  0  0  0  0
    2.6378    0.1271    0.0000 C   0  0  0  0  0  0  0  0  0  0  0  0
    3.3523   -0.2854    0.0000 C   0  0  0  0  0  0  0  0  0  0  0  0
    3.3523   -1.1104    0.0000 C   0  0  0  0  0  0  0  0  0  0  0  0
    4.0668   -1.5229    0.0000 N   0  0  0  0  0  0  0  0  0  0  0  0
    2.6378   -1.5229    0.0000 C   0  0  0  0  0  0  0  0  0  0  0  0
    1.9233   -1.1104    0.0000 N   0  0  0  0  0  0  0  0  0  0  0  0
  1  2  1  0  0  0  0
  2  3  1  0  0  0  0
  2  4  1  0  0  0  0
  4  5  2  0  0  0  0
  5  6  1  0  0  0  0
  6  7  2  0  0  0  0
  7  8  1  0  0  0  0
  8  9  1  0  0  0  0
  9 10  1  0  0  0  0
 10 11  1  0  0  0  0
 10 12  1  0  0  0  0
 12 13  1  0  0  0  0
  4 13  1  0  0  0  0
  7 13  1  0  0  0  0
M  END
>  <Catalog ID>
Z985590232

>  <PlateID>
1198308-R-SPFL-07

>  <Well>
D04

>  <MW (desalted)>
180.250

>  <ClogP>
-0.423

>  <HBD>
1

>  <TPSA>
56.730

>  <RotBonds>
1

$$$$

            

 13 14  0  0  0  0            999 V2000
    2.0656    5.9031    0.0000 C   0  0  0  0  0  0  0  0  0  0  0  0
    2.8906    5.9031    0.0000 C   0  0  0  0  0  0  0  0  0  0  0  0
    3.4050    5.2581    0.0000 C   0  0  0  0  0  0  0  0  0  0  0  0
    3.2214    4.4538    0.0000 N   0  0  0  0  0  0  0  0  0  0  0  0
    2.4781    4.0958    0.0000 C   0  0  0  0  0  0  0  0  0  0  0  0
    1.7348    4.4538    0.0000 C   0  0  0  0  0  0  0  0  0  0  0  0
    1.5512    5.2581    0.0000 C   0  0  0  0  0  0  0  0  0  0  0  0
    2.4781    3.2708    0.0000 C   0  0  0  0  0  0  0  0  0  0  0  0
    3.1926    2.8583    0.0000 C   0  0  0  0  0  0  0  0  0  0  0  0
    3.1926    2.0333    0.0000 C   0  0  0  0  0  0  0  0  0  0  0  0
    2.4781    1.6208    0.0000 N   0  0  0  0  0  0  0  0  0  0  0  0
    1.7636    2.0333    0.0000 C   0  0  0  0  0  0  0  0  0  0  0  0
    1.7636    2.8583    0.0000 C   0  0  0  0  0  0  0  0  0  0  0  0
  1  2  1  0  0  0  0
  2  3  1  0  0  0  0
  3  4  1  0  0  0  0
  4  5  1  0  0  0  0
  5  6  1  0  0  0  0
  6  7  1  0  0  0  0
  1  7  1  0  0  0  0
  5  8  1  0  0  0  0
  8  9  2  0  0  0  0
  9 10  1  0  0  0  0
 10 11  2  0  0  0  0
 11 12  1  0  0  0  0
 12 13  2  0  0  0  0
  8 13  1  0  0  0  0
M  END
>  <Catalog ID>
Z409355870

>  <PlateID>
1198308-R-SPFL-07

>  <Well>
D05

>  <MW (desalted)>
176.258

>  <ClogP>
1.555

>  <HBD>
1

>  <TPSA>
24.920

>  <RotBonds>
1

$$$$

            

 14 15  0  0  0  0            999 V2000
    2.7512   -0.0616    0.0000 N   0  0  0  0  0  0  0  0  0  0  0  0
    2.0367   -0.4741    0.0000 C   0  0  0  0  0  0  0  0  0  0  0  0
    2.0367   -1.2991    0.0000 C   0  0  0  0  0  0  0  0  0  0  0  0
    2.7041   -1.7840    0.0000 C   0  0  0  0  0  0  0  0  0  0  0  0
    2.4492   -2.5687    0.0000 C   0  0  0  0  0  0  0  0  0  0  0  0
    1.6242   -2.5687    0.0000 N   0  0  0  0  0  0  0  0  0  0  0  0
    1.1393   -3.2361    0.0000 C   0  0  0  0  0  0  0  0  0  0  0  0
    0.3188   -3.1499    0.0000 C   0  0  0  0  0  0  0  0  0  0  0  0
   -0.1661   -3.8173    0.0000 C   0  0  0  0  0  0  0  0  0  0  0  0
   -0.9866   -3.7311    0.0000 C   0  0  0  0  0  0  0  0  0  0  0  0
   -1.3222   -2.9774    0.0000 C   0  0  0  0  0  0  0  0  0  0  0  0
   -0.8372   -2.3099    0.0000 C   0  0  0  0  0  0  0  0  0  0  0  0
   -0.0168   -2.3962    0.0000 C   0  0  0  0  0  0  0  0  0  0  0  0
    1.3693   -1.7840    0.0000 N   0  0  0  0  0  0  0  0  0  0  0  0
  1  2  1  0  0  0  0
  2  3  1  0  0  0  0
  3  4  1  0  0  0  0
  4  5  2  0  0  0  0
  5  6  1  0  0  0  0
  6  7  1  0  0  0  0
  7  8  1  0  0  0  0
  8  9  2  0  0  0  0
  9 10  1  0  0  0  0
 10 11  2  0  0  0  0
 11 12  1  0  0  0  0
 12 13  2  0  0  0  0
  8 13  1  0  0  0  0
  6 14  1  0  0  0  0
  3 14  2  0  0  0  0
M  END
>  <Catalog ID>
Z1198176535

>  <PlateID>
1198308-R-SPFL-07

>  <Well>
D06

>  <MW (desalted)>
187.241

>  <ClogP>
1.167

>  <HBD>
1

>  <TPSA>
43.840

>  <RotBonds>
3

$$$$

            

 11 12  0  0  0  0            999 V2000
   -0.5837   -1.4124    0.0000 O   0  0  0  0  0  0  0  0  0  0  0  0
   -0.1712   -0.6979    0.0000 C   0  0  0  0  0  0  0  0  0  0  0  0
    0.6538   -0.6979    0.0000 C   0  0  0  0  0  0  0  0  0  0  0  0
    1.1387   -0.0305    0.0000 N   0  0  0  0  0  0  0  0  0  0  0  0
    1.9233   -0.2854    0.0000 C   0  0  0  0  0  0  0  0  0  0  0  0
    2.6378    0.1271    0.0000 C   0  0  0  0  0  0  0  0  0  0  0  0
    3.3523   -0.2854    0.0000 C   0  0  0  0  0  0  0  0  0  0  0  0
    3.3523   -1.1104    0.0000 C   0  0  0  0  0  0  0  0  0  0  0  0
    2.6378   -1.5229    0.0000 C   0  0  0  0  0  0  0  0  0  0  0  0
    1.9233   -1.1104    0.0000 C   0  0  0  0  0  0  0  0  0  0  0  0
    1.1387   -1.3654    0.0000 O   0  0  0  0  0  0  0  0  0  0  0  0
  1  2  1  0  0  0  0
  2  3  1  0  0  0  0
  3  4  2  0  0  0  0
  4  5  1  0  0  0  0
  5  6  2  0  0  0  0
  6  7  1  0  0  0  0
  7  8  2  0  0  0  0
  8  9  1  0  0  0  0
  9 10  2  0  0  0  0
  5 10  1  0  0  0  0
 10 11  1  0  0  0  0
  3 11  1  0  0  0  0
M  END
>  <Catalog ID>
Z431953250

>  <PlateID>
1198308-R-SPFL-07

>  <Well>
D07

>  <MW (desalted)>
149.147

>  <ClogP>
0.377

>  <HBD>
1

>  <TPSA>
46.260

>  <RotBonds>
1

$$$$

            

 13 14  0  0  0  0            999 V2000
    1.3222   -0.0616    0.0000 N   0  0  0  0  0  0  0  0  0  0  0  0
    2.0367   -0.4741    0.0000 C   0  0  0  0  0  0  0  0  0  0  0  0
    2.0367   -1.2991    0.0000 C   0  0  0  0  0  0  0  0  0  0  0  0
    2.7041   -1.7840    0.0000 N   0  0  0  0  0  0  0  0  0  0  0  0
    2.4492   -2.5687    0.0000 C   0  0  0  0  0  0  0  0  0  0  0  0
    1.6242   -2.5687    0.0000 C   0  0  0  0  0  0  0  0  0  0  0  0
    1.3693   -1.7840    0.0000 S   0  0  0  0  0  0  0  0  0  0  0  0
    2.7512   -0.0616    0.0000 C   0  0  0  0  0  0  0  0  0  0  0  0
    2.7512    0.7634    0.0000 C   0  0  0  0  0  0  0  0  0  0  0  0
    3.4656    1.1759    0.0000 C   0  0  0  0  0  0  0  0  0  0  0  0
    4.1801    0.7634    0.0000 C   0  0  0  0  0  0  0  0  0  0  0  0
    4.1801   -0.0616    0.0000 C   0  0  0  0  0  0  0  0  0  0  0  0
    3.4656   -0.4741    0.0000 C   0  0  0  0  0  0  0  0  0  0  0  0
  1  2  1  0  0  0  0
  2  3  1  0  0  0  0
  3  4  2  0  0  0  0
  4  5  1  0  0  0  0
  5  6  2  0  0  0  0
  6  7  1  0  0  0  0
  3  7  1  0  0  0  0
  2  8  1  0  0  0  0
  8  9  2  0  0  0  0
  9 10  1  0  0  0  0
 10 11  2  0  0  0  0
 11 12  1  0  0  0  0
 12 13  2  0  0  0  0
  8 13  1  0  0  0  0
M  END
>  <Catalog ID>
Z803085908

>  <PlateID>
1198308-R-SPFL-07

>  <Well>
D08

>  <MW (desalted)>
190.265

>  <ClogP>
0.786

>  <HBD>
1

>  <TPSA>
38.910

>  <RotBonds>
2

$$$$

            

 11 12  0  0  0  0            999 V2000
    1.1270   -2.5070    0.0000 C   0  0  0  0  0  0  0  0  0  0  0  0
    0.3020   -2.5070    0.0000 C   0  0  0  0  0  0  0  0  0  0  0  0
    0.0470   -1.7224    0.0000 N   0  0  0  0  0  0  0  0  0  0  0  0
    0.7145   -1.2375    0.0000 C   0  0  0  0  0  0  0  0  0  0  0  0
    1.3819   -1.7224    0.0000 C   0  0  0  0  0  0  0  0  0  0  0  0
    0.7145   -0.4125    0.0000 C   0  0  0  0  0  0  0  0  0  0  0  0
    0.0000    0.0000    0.0000 C   0  0  0  0  0  0  0  0  0  0  0  0
    0.0000    0.8250    0.0000 C   0  0  0  0  0  0  0  0  0  0  0  0
    0.7145    1.2375    0.0000 C   0  0  0  0  0  0  0  0  0  0  0  0
    1.4289    0.8250    0.0000 C   0  0  0  0  0  0  0  0  0  0  0  0
    1.4289   -0.0000    0.0000 C   0  0  0  0  0  0  0  0  0  0  0  0
  1  2  1  0  0  0  0
  2  3  1  0  0  0  0
  3  4  1  0  0  0  0
  4  5  1  0  0  0  0
  1  5  1  0  0  0  0
  4  6  1  0  0  0  0
  6  7  2  0  0  0  0
  7  8  1  0  0  0  0
  8  9  2  0  0  0  0
  9 10  1  0  0  0  0
 10 11  2  0  0  0  0
  6 11  1  0  0  0  0
M  END
>  <Catalog ID>
Z223138744

>  <PlateID>
1198308-R-SPFL-07

>  <Well>
D09

>  <MW (desalted)>
147.217

>  <ClogP>
1.934

>  <HBD>
1

>  <TPSA>
12.030

>  <RotBonds>
1

$$$$

            

 12 12  0  0  0  0            999 V2000
    1.2822    2.3518    0.0000 O   0  0  0  0  0  0  0  0  0  0  0  0
    0.5678    1.9393    0.0000 C   0  0  0  0  0  0  0  0  0  0  0  0
   -0.1467    2.3518    0.0000 O   0  0  0  0  0  0  0  0  0  0  0  0
    0.5678    1.1143    0.0000 C   0  0  0  0  0  0  0  0  0  0  0  0
    1.2352    0.6294    0.0000 C   0  0  0  0  0  0  0  0  0  0  0  0
    0.9803   -0.1553    0.0000 O   0  0  0  0  0  0  0  0  0  0  0  0
    0.1553   -0.1553    0.0000 C   0  0  0  0  0  0  0  0  0  0  0  0
   -0.0997    0.6294    0.0000 N   0  0  0  0  0  0  0  0  0  0  0  0
   -0.3297   -0.8227    0.0000 C   0  0  0  0  0  0  0  0  0  0  0  0
   -0.8146   -1.4901    0.0000 F   0  0  0  0  0  0  0  0  0  0  0  0
   -0.9971   -0.3378    0.0000 F   0  0  0  0  0  0  0  0  0  0  0  0
    0.3378   -1.3076    0.0000 F   0  0  0  0  0  0  0  0  0  0  0  0
  1  2  1  0  0  0  0
  2  3  2  0  0  0  0
  2  4  1  0  0  0  0
  4  5  2  0  0  0  0
  5  6  1  0  0  0  0
  6  7  1  0  0  0  0
  7  8  2  0  0  0  0
  4  8  1  0  0  0  0
  7  9  1  0  0  0  0
  9 10  1  0  0  0  0
  9 11  1  0  0  0  0
  9 12  1  0  0  0  0
M  END
>  <Catalog ID>
Z1255440209

>  <PlateID>
1198308-R-SPFL-07

>  <Well>
D10

>  <MW (desalted)>
181.069

>  <ClogP>
1.100

>  <HBD>
1

>  <TPSA>
63.330

>  <RotBonds>
2

$$$$

            

 14 14  0  0  0  0            999 V2000
    0.0000    0.0000    0.0000 Cl  0  0  0  0  0  0  0  0  0  0  0  0
    4.8030    2.5508    0.0000 N   0  0  0  0  0  0  0  0  0  0  0  0
    4.0885    2.1383    0.0000 C   0  0  0  0  0  0  0  0  0  0  0  0
    4.0885    1.3133    0.0000 C   0  0  0  0  0  0  0  0  0  0  0  0
    4.7560    0.8284    0.0000 N   0  0  0  0  0  0  0  0  0  0  0  0
    4.5010    0.0438    0.0000 C   0  0  0  0  0  0  0  0  0  0  0  0
    3.6760    0.0438    0.0000 C   0  0  0  0  0  0  0  0  0  0  0  0
    3.4211    0.8284    0.0000 O   0  0  0  0  0  0  0  0  0  0  0  0
    3.1911   -0.6237    0.0000 C   0  0  0  0  0  0  0  0  0  0  0  0
    3.5267   -1.3774    0.0000 C   0  0  0  0  0  0  0  0  0  0  0  0
    3.0418   -2.0448    0.0000 C   0  0  0  0  0  0  0  0  0  0  0  0
    2.2213   -1.9586    0.0000 C   0  0  0  0  0  0  0  0  0  0  0  0
    1.8857   -1.2049    0.0000 C   0  0  0  0  0  0  0  0  0  0  0  0
    2.3706   -0.5374    0.0000 C   0  0  0  0  0  0  0  0  0  0  0  0
  2  3  1  0  0  0  0
  3  4  1  0  0  0  0
  4  5  2  0  0  0  0
  5  6  1  0  0  0  0
  6  7  2  0  0  0  0
  7  8  1  0  0  0  0
  4  8  1  0  0  0  0
  7  9  1  0  0  0  0
  9 10  2  0  0  0  0
 10 11  1  0  0  0  0
 11 12  2  0  0  0  0
 12 13  1  0  0  0  0
 13 14  2  0  0  0  0
  9 14  1  0  0  0  0
M  END
>  <Catalog ID>
Z1891774998

>  <PlateID>
1198308-R-SPFL-07

>  <Well>
D11

>  <MW (desalted)>
174.199

>  <ClogP>
0.871

>  <HBD>
1

>  <TPSA>
52.050

>  <RotBonds>
2

$$$$

            

 12 12  0  0  0  0            999 V2000
   -0.1467    3.1768    0.0000 N   0  0  0  0  0  0  0  0  0  0  0  0
   -0.1467    2.3518    0.0000 C   0  0  0  0  0  0  0  0  0  0  0  0
    0.5678    1.9393    0.0000 C   0  0  0  0  0  0  0  0  0  0  0  0
    0.5678    1.1143    0.0000 C   0  0  0  0  0  0  0  0  0  0  0  0
    1.2352    0.6294    0.0000 N   0  0  0  0  0  0  0  0  0  0  0  0
    0.9803   -0.1553    0.0000 C   0  0  0  0  0  0  0  0  0  0  0  0
    0.1553   -0.1553    0.0000 C   0  0  0  0  0  0  0  0  0  0  0  0
   -0.0997    0.6294    0.0000 S   0  0  0  0  0  0  0  0  0  0  0  0
    1.4652   -0.8227    0.0000 C   0  0  0  0  0  0  0  0  0  0  0  0
    1.9501   -1.4901    0.0000 F   0  0  0  0  0  0  0  0  0  0  0  0
    0.7977   -1.3076    0.0000 F   0  0  0  0  0  0  0  0  0  0  0  0
    2.1326   -0.3378    0.0000 F   0  0  0  0  0  0  0  0  0  0  0  0
  1  2  1  0  0  0  0
  2  3  1  0  0  0  0
  3  4  1  0  0  0  0
  4  5  2  0  0  0  0
  5  6  1  0  0  0  0
  6  7  2  0  0  0  0
  7  8  1  0  0  0  0
  4  8  1  0  0  0  0
  6  9  1  0  0  0  0
  9 10  1  0  0  0  0
  9 11  1  0  0  0  0
  9 12  1  0  0  0  0
M  END
>  <Catalog ID>
Z431535350

>  <PlateID>
1198308-R-SPFL-07

>  <Well>
E02

>  <MW (desalted)>
196.193

>  <ClogP>
0.776

>  <HBD>
1

>  <TPSA>
38.910

>  <RotBonds>
3

$$$$

            

 14 15  0  0  0  0            999 V2000
    1.4289   -0.0000    0.0000 N   0  0  0  0  0  0  0  0  0  0  0  0
    0.7145   -0.4125    0.0000 C   0  0  0  0  0  0  0  0  0  0  0  0
    0.7145   -1.2375    0.0000 C   0  0  0  0  0  0  0  0  0  0  0  0
    1.4289   -1.6500    0.0000 C   0  0  0  0  0  0  0  0  0  0  0  0
    1.4289   -2.4750    0.0000 C   0  0  0  0  0  0  0  0  0  0  0  0
    0.7145   -2.8875    0.0000 C   0  0  0  0  0  0  0  0  0  0  0  0
    0.0000   -2.4750    0.0000 C   0  0  0  0  0  0  0  0  0  0  0  0
    0.0000   -1.6500    0.0000 C   0  0  0  0  0  0  0  0  0  0  0  0
   -0.7145   -2.8875    0.0000 C   0  0  0  0  0  0  0  0  0  0  0  0
   -0.7145   -3.7125    0.0000 C   0  0  0  0  0  0  0  0  0  0  0  0
   -1.4289   -4.1250    0.0000 C   0  0  0  0  0  0  0  0  0  0  0  0
   -2.1434   -3.7125    0.0000 N   0  0  0  0  0  0  0  0  0  0  0  0
   -2.1434   -2.8875    0.0000 C   0  0  0  0  0  0  0  0  0  0  0  0
   -1.4289   -2.4750    0.0000 C   0  0  0  0  0  0  0  0  0  0  0  0
  1  2  1  0  0  0  0
  2  3  1  0  0  0  0
  3  4  2  0  0  0  0
  4  5  1  0  0  0  0
  5  6  2  0  0  0  0
  6  7  1  0  0  0  0
  7  8  2  0  0  0  0
  3  8  1  0  0  0  0
  7  9  1  0  0  0  0
  9 10  2  0  0  0  0
 10 11  1  0  0  0  0
 11 12  2  0  0  0  0
 12 13  1  0  0  0  0
 13 14  2  0  0  0  0
  9 14  1  0  0  0  0
M  END
>  <Catalog ID>
Z756099184

>  <PlateID>
1198308-R-SPFL-07

>  <Well>
E03

>  <MW (desalted)>
184.237

>  <ClogP>
1.485

>  <HBD>
1

>  <TPSA>
38.910

>  <RotBonds>
2

$$$$

            

 14 15  0  0  0  0            999 V2000
    1.4289    0.8250    0.0000 N   0  0  0  0  0  0  0  0  0  0  0  0
    1.4289   -0.0000    0.0000 C   0  0  0  0  0  0  0  0  0  0  0  0
    0.7145   -0.4125    0.0000 C   0  0  0  0  0  0  0  0  0  0  0  0
    0.7145   -1.2375    0.0000 C   0  0  0  0  0  0  0  0  0  0  0  0
    1.3819   -1.7224    0.0000 C   0  0  0  0  0  0  0  0  0  0  0  0
    1.1270   -2.5070    0.0000 O   0  0  0  0  0  0  0  0  0  0  0  0
    0.3020   -2.5070    0.0000 C   0  0  0  0  0  0  0  0  0  0  0  0
    0.0470   -1.7224    0.0000 N   0  0  0  0  0  0  0  0  0  0  0  0
   -0.1830   -3.1745    0.0000 C   0  0  0  0  0  0  0  0  0  0  0  0
    0.1526   -3.9282    0.0000 C   0  0  0  0  0  0  0  0  0  0  0  0
   -0.3323   -4.5956    0.0000 C   0  0  0  0  0  0  0  0  0  0  0  0
   -1.1528   -4.5094    0.0000 C   0  0  0  0  0  0  0  0  0  0  0  0
   -1.4884   -3.7557    0.0000 C   0  0  0  0  0  0  0  0  0  0  0  0
   -1.0034   -3.0882    0.0000 C   0  0  0  0  0  0  0  0  0  0  0  0
  1  2  1  0  0  0  0
  2  3  1  0  0  0  0
  3  4  1  0  0  0  0
  4  5  2  0  0  0  0
  5  6  1  0  0  0  0
  6  7  1  0  0  0  0
  7  8  2  0  0  0  0
  4  8  1  0  0  0  0
  7  9  1  0  0  0  0
  9 10  2  0  0  0  0
 10 11  1  0  0  0  0
 11 12  2  0  0  0  0
 12 13  1  0  0  0  0
 13 14  2  0  0  0  0
  9 14  1  0  0  0  0
M  END
>  <Catalog ID>
Z316122130

>  <PlateID>
1198308-R-SPFL-07

>  <Well>
E04

>  <MW (desalted)>
188.226

>  <ClogP>
0.980

>  <HBD>
1

>  <TPSA>
52.050

>  <RotBonds>
3

$$$$

            

 12 12  0  0  0  0            999 V2000
    1.4289    2.4750    0.0000 N   0  0  0  0  0  0  0  0  0  0  0  0
    0.7145    2.0625    0.0000 C   0  0  0  0  0  0  0  0  0  0  0  0
    0.7145    1.2375    0.0000 C   0  0  0  0  0  0  0  0  0  0  0  0
    1.4289    0.8250    0.0000 C   0  0  0  0  0  0  0  0  0  0  0  0
    1.4289   -0.0000    0.0000 C   0  0  0  0  0  0  0  0  0  0  0  0
    0.7145   -0.4125    0.0000 C   0  0  0  0  0  0  0  0  0  0  0  0
    0.0000    0.0000    0.0000 C   0  0  0  0  0  0  0  0  0  0  0  0
    0.0000    0.8250    0.0000 C   0  0  0  0  0  0  0  0  0  0  0  0
   -0.7145   -0.4125    0.0000 C   0  0  0  0  0  0  0  0  0  0  0  0
   -1.4289   -0.8250    0.0000 F   0  0  0  0  0  0  0  0  0  0  0  0
   -1.1270    0.3020    0.0000 F   0  0  0  0  0  0  0  0  0  0  0  0
   -0.3020   -1.1270    0.0000 F   0  0  0  0  0  0  0  0  0  0  0  0
  1  2  1  0  0  0  0
  2  3  1  0  0  0  0
  3  4  2  0  0  0  0
  4  5  1  0  0  0  0
  5  6  2  0  0  0  0
  6  7  1  0  0  0  0
  7  8  2  0  0  0  0
  3  8  1  0  0  0  0
  7  9  1  0  0  0  0
  9 10  1  0  0  0  0
  9 11  1  0  0  0  0
  9 12  1  0  0  0  0
M  END
>  <Catalog ID>
Z54750233

>  <PlateID>
1198308-R-SPFL-07

>  <Well>
E05

>  <MW (desalted)>
175.151

>  <ClogP>
1.977

>  <HBD>
1

>  <TPSA>
26.020

>  <RotBonds>
2

$$$$

            

 11 11  0  0  0  0            999 V2000
   -0.7145    3.7125    0.0000 O   0  0  0  0  0  0  0  0  0  0  0  0
    0.0000    3.3000    0.0000 C   0  0  0  0  0  0  0  0  0  0  0  0
    0.7145    3.7125    0.0000 O   0  0  0  0  0  0  0  0  0  0  0  0
    0.0000    2.4750    0.0000 C   0  0  0  0  0  0  0  0  0  0  0  0
    0.7145    2.0625    0.0000 C   0  0  0  0  0  0  0  0  0  0  0  0
    0.7145    1.2375    0.0000 C   0  0  0  0  0  0  0  0  0  0  0  0
    1.4289    0.8250    0.0000 C   0  0  0  0  0  0  0  0  0  0  0  0
    1.4289   -0.0000    0.0000 C   0  0  0  0  0  0  0  0  0  0  0  0
    0.7145   -0.4125    0.0000 C   0  0  0  0  0  0  0  0  0  0  0  0
    0.0000    0.0000    0.0000 C   0  0  0  0  0  0  0  0  0  0  0  0
    0.0000    0.8250    0.0000 O   0  0  0  0  0  0  0  0  0  0  0  0
  1  2  1  0  0  0  0
  2  3  2  0  0  0  0
  2  4  1  0  0  0  0
  4  5  1  0  0  0  0
  5  6  1  0  0  0  0
  6  7  1  0  0  0  0
  7  8  1  0  0  0  0
  8  9  1  0  0  0  0
  9 10  1  0  0  0  0
 10 11  1  0  0  0  0
  6 11  1  0  0  0  0
M  END
>  <Catalog ID>
Z1167042736

>  <PlateID>
1198308-R-SPFL-07

>  <Well>
E06

>  <MW (desalted)>
158.195

>  <ClogP>
1.009

>  <HBD>
1

>  <TPSA>
46.530

>  <RotBonds>
3

$$$$

            

 11 12  0  0  0  0            999 V2000
    1.4289   -2.4750    0.0000 C   0  0  0  0  0  0  0  0  0  0  0  0
    1.4289   -1.6500    0.0000 N   0  0  0  0  0  0  0  0  0  0  0  0
    0.7145   -1.2375    0.0000 C   0  0  0  0  0  0  0  0  0  0  0  0
    0.7145   -0.4125    0.0000 C   0  0  0  0  0  0  0  0  0  0  0  0
    1.4289    0.0000    0.0000 N   0  0  0  0  0  0  0  0  0  0  0  0
    2.1434   -0.4125    0.0000 C   0  0  0  0  0  0  0  0  0  0  0  0
    2.8579    0.0000    0.0000 C   0  0  0  0  0  0  0  0  0  0  0  0
    3.5724   -0.4125    0.0000 C   0  0  0  0  0  0  0  0  0  0  0  0
    3.5724   -1.2375    0.0000 C   0  0  0  0  0  0  0  0  0  0  0  0
    2.8579   -1.6500    0.0000 C   0  0  0  0  0  0  0  0  0  0  0  0
    2.1434   -1.2375    0.0000 C   0  0  0  0  0  0  0  0  0  0  0  0
  1  2  1  0  0  0  0
  2  3  1  0  0  0  0
  3  4  1  0  0  0  0
  4  5  1  0  0  0  0
  5  6  1  0  0  0  0
  6  7  2  0  0  0  0
  7  8  1  0  0  0  0
  8  9  2  0  0  0  0
  9 10  1  0  0  0  0
 10 11  2  0  0  0  0
  2 11  1  0  0  0  0
  6 11  1  0  0  0  0
M  END
>  <Catalog ID>
Z558641952

>  <PlateID>
1198308-R-SPFL-07

>  <Well>
E07

>  <MW (desalted)>
148.205

>  <ClogP>
1.842

>  <HBD>
1

>  <TPSA>
15.270

>  <RotBonds>
0

$$$$

            

 14 15  0  0  0  0            999 V2000
    2.0367   -0.4741    0.0000 C   0  0  0  0  0  0  0  0  0  0  0  0
    2.0367   -1.2991    0.0000 N   0  0  0  0  0  0  0  0  0  0  0  0
    2.7041   -1.7840    0.0000 C   0  0  0  0  0  0  0  0  0  0  0  0
    2.4492   -2.5687    0.0000 C   0  0  0  0  0  0  0  0  0  0  0  0
    1.6242   -2.5687    0.0000 N   0  0  0  0  0  0  0  0  0  0  0  0
    1.3693   -1.7840    0.0000 C   0  0  0  0  0  0  0  0  0  0  0  0
    0.5846   -1.5291    0.0000 C   0  0  0  0  0  0  0  0  0  0  0  0
   -0.0284   -2.0811    0.0000 N   0  0  0  0  0  0  0  0  0  0  0  0
    0.4131   -0.7221    0.0000 C   0  0  0  0  0  0  0  0  0  0  0  0
   -0.3715   -0.4672    0.0000 C   0  0  0  0  0  0  0  0  0  0  0  0
   -0.5430    0.3398    0.0000 C   0  0  0  0  0  0  0  0  0  0  0  0
    0.0701    0.8918    0.0000 C   0  0  0  0  0  0  0  0  0  0  0  0
    0.8547    0.6369    0.0000 C   0  0  0  0  0  0  0  0  0  0  0  0
    1.0262   -0.1701    0.0000 C   0  0  0  0  0  0  0  0  0  0  0  0
  1  2  1  0  0  0  0
  2  3  1  0  0  0  0
  3  4  2  0  0  0  0
  4  5  1  0  0  0  0
  5  6  2  0  0  0  0
  2  6  1  0  0  0  0
  6  7  1  0  0  0  0
  7  8  1  0  0  0  0
  7  9  1  0  0  0  0
  9 10  2  0  0  0  0
 10 11  1  0  0  0  0
 11 12  2  0  0  0  0
 12 13  1  0  0  0  0
 13 14  2  0  0  0  0
  9 14  1  0  0  0  0
M  END
>  <Catalog ID>
Z118429568

>  <PlateID>
1198308-R-SPFL-07

>  <Well>
E08

>  <MW (desalted)>
187.241

>  <ClogP>
0.287

>  <HBD>
1

>  <TPSA>
43.840

>  <RotBonds>
2

$$$$

            

 11 12  0  0  0  0            999 V2000
    0.0000   -1.6500    0.0000 F   0  0  0  0  0  0  0  0  0  0  0  0
    0.7145   -1.2375    0.0000 C   0  0  0  0  0  0  0  0  0  0  0  0
    0.7145   -0.4125    0.0000 C   0  0  0  0  0  0  0  0  0  0  0  0
    1.4289    0.0000    0.0000 C   0  0  0  0  0  0  0  0  0  0  0  0
    2.1434   -0.4125    0.0000 C   0  0  0  0  0  0  0  0  0  0  0  0
    2.8579    0.0000    0.0000 N   0  0  0  0  0  0  0  0  0  0  0  0
    3.5724   -0.4125    0.0000 C   0  0  0  0  0  0  0  0  0  0  0  0
    3.5724   -1.2375    0.0000 C   0  0  0  0  0  0  0  0  0  0  0  0
    2.8579   -1.6500    0.0000 O   0  0  0  0  0  0  0  0  0  0  0  0
    2.1434   -1.2375    0.0000 C   0  0  0  0  0  0  0  0  0  0  0  0
    1.4289   -1.6500    0.0000 C   0  0  0  0  0  0  0  0  0  0  0  0
  1  2  1  0  0  0  0
  2  3  2  0  0  0  0
  3  4  1  0  0  0  0
  4  5  2  0  0  0  0
  5  6  1  0  0  0  0
  6  7  1  0  0  0  0
  7  8  1  0  0  0  0
  8  9  1  0  0  0  0
  9 10  1  0  0  0  0
  5 10  1  0  0  0  0
 10 11  2  0  0  0  0
  2 11  1  0  0  0  0
M  END
>  <Catalog ID>
Z1201625926

>  <PlateID>
1198308-R-SPFL-07

>  <Well>
E09

>  <MW (desalted)>
153.154

>  <ClogP>
2.028

>  <HBD>
1

>  <TPSA>
21.260

>  <RotBonds>
0

$$$$

            

 11 12  0  0  0  0            999 V2000
    1.2564   -0.1802    0.0000 C   0  0  0  0  0  0  0  0  0  0  0  0
    1.2564   -1.0052    0.0000 C   0  0  0  0  0  0  0  0  0  0  0  0
    1.9239   -1.4901    0.0000 N   0  0  0  0  0  0  0  0  0  0  0  0
    1.6689   -2.2748    0.0000 C   0  0  0  0  0  0  0  0  0  0  0  0
    0.8439   -2.2748    0.0000 N   0  0  0  0  0  0  0  0  0  0  0  0
    0.5890   -1.4901    0.0000 O   0  0  0  0  0  0  0  0  0  0  0  0
    2.1538   -2.9422    0.0000 C   0  0  0  0  0  0  0  0  0  0  0  0
    2.9788   -2.9422    0.0000 C   0  0  0  0  0  0  0  0  0  0  0  0
    3.2338   -3.7268    0.0000 C   0  0  0  0  0  0  0  0  0  0  0  0
    2.5663   -4.2117    0.0000 C   0  0  0  0  0  0  0  0  0  0  0  0
    1.8989   -3.7268    0.0000 N   0  0  0  0  0  0  0  0  0  0  0  0
  1  2  1  0  0  0  0
  2  3  2  0  0  0  0
  3  4  1  0  0  0  0
  4  5  2  0  0  0  0
  5  6  1  0  0  0  0
  2  6  1  0  0  0  0
  4  7  1  0  0  0  0
  7  8  1  0  0  0  0
  8  9  1  0  0  0  0
  9 10  1  0  0  0  0
 10 11  1  0  0  0  0
  7 11  1  0  0  0  0
M  END
>  <Catalog ID>
Z979742716

>  <PlateID>
1198308-R-SPFL-07

>  <Well>
E10

>  <MW (desalted)>
153.182

>  <ClogP>
-0.445

>  <HBD>
1

>  <TPSA>
50.950

>  <RotBonds>
1

$$$$

            

 11 11  0  0  0  0            999 V2000
    0.0000    3.3000    0.0000 N   0  0  0  0  0  0  0  0  0  0  0  0
    0.0000    2.4750    0.0000 C   0  0  0  0  0  0  0  0  0  0  0  0
    0.7145    2.0625    0.0000 C   0  0  0  0  0  0  0  0  0  0  0  0
    0.7145    1.2375    0.0000 C   0  0  0  0  0  0  0  0  0  0  0  0
    1.4289    0.8250    0.0000 C   0  0  0  0  0  0  0  0  0  0  0  0
    1.4289   -0.0000    0.0000 C   0  0  0  0  0  0  0  0  0  0  0  0
    0.7145   -0.4125    0.0000 C   0  0  0  0  0  0  0  0  0  0  0  0
    0.7145   -1.2375    0.0000 F   0  0  0  0  0  0  0  0  0  0  0  0
    0.0000    0.0000    0.0000 C   0  0  0  0  0  0  0  0  0  0  0  0
    0.0000    0.8250    0.0000 C   0  0  0  0  0  0  0  0  0  0  0  0
   -0.7145    1.2375    0.0000 F   0  0  0  0  0  0  0  0  0  0  0  0
  1  2  1  0  0  0  0
  2  3  1  0  0  0  0
  3  4  1  0  0  0  0
  4  5  2  0  0  0  0
  5  6  1  0  0  0  0
  6  7  2  0  0  0  0
  7  8  1  0  0  0  0
  7  9  1  0  0  0  0
  9 10  2  0  0  0  0
  4 10  1  0  0  0  0
 10 11  1  0  0  0  0
M  END
>  <Catalog ID>
Z285143768

>  <PlateID>
1198308-R-SPFL-07

>  <Well>
E11

>  <MW (desalted)>
157.161

>  <ClogP>
1.719

>  <HBD>
1

>  <TPSA>
26.020

>  <RotBonds>
2

$$$$

            

 11 11  0  0  0  0            999 V2000
    1.4289    3.3000    0.0000 C   0  0  0  0  0  0  0  0  0  0  0  0
    1.4289    2.4750    0.0000 O   0  0  0  0  0  0  0  0  0  0  0  0
    0.7145    2.0625    0.0000 C   0  0  0  0  0  0  0  0  0  0  0  0
    0.7145    1.2375    0.0000 C   0  0  0  0  0  0  0  0  0  0  0  0
    1.4289    0.8250    0.0000 C   0  0  0  0  0  0  0  0  0  0  0  0
    1.4289   -0.0000    0.0000 C   0  0  0  0  0  0  0  0  0  0  0  0
    0.7145   -0.4125    0.0000 C   0  0  0  0  0  0  0  0  0  0  0  0
    0.0000    0.0000    0.0000 C   0  0  0  0  0  0  0  0  0  0  0  0
   -0.7145   -0.4125    0.0000 C   0  0  0  0  0  0  0  0  0  0  0  0
   -0.7145   -1.2375    0.0000 N   0  0  0  0  0  0  0  0  0  0  0  0
    0.0000    0.8250    0.0000 C   0  0  0  0  0  0  0  0  0  0  0  0
  1  2  1  0  0  0  0
  2  3  1  0  0  0  0
  3  4  1  0  0  0  0
  4  5  2  0  0  0  0
  5  6  1  0  0  0  0
  6  7  2  0  0  0  0
  7  8  1  0  0  0  0
  8  9  1  0  0  0  0
  9 10  1  0  0  0  0
  8 11  2  0  0  0  0
  4 11  1  0  0  0  0
M  END
>  <Catalog ID>
Z240084738

>  <PlateID>
1198308-R-SPFL-07

>  <Well>
F02

>  <MW (desalted)>
151.206

>  <ClogP>
0.892

>  <HBD>
1

>  <TPSA>
35.250

>  <RotBonds>
3

$$$$

            

 11 11  0  0  0  0            999 V2000
    0.7145    2.0625    0.0000 N   0  0  0  0  0  0  0  0  0  0  0  0
    0.7145    1.2375    0.0000 C   0  0  0  0  0  0  0  0  0  0  0  0
    1.4289    0.8250    0.0000 C   0  0  0  0  0  0  0  0  0  0  0  0
    1.4289   -0.0000    0.0000 C   0  0  0  0  0  0  0  0  0  0  0  0
    0.7145   -0.4125    0.0000 C   0  0  0  0  0  0  0  0  0  0  0  0
    0.0000    0.0000    0.0000 C   0  0  0  0  0  0  0  0  0  0  0  0
    0.0000    0.8250    0.0000 N   0  0  0  0  0  0  0  0  0  0  0  0
    2.1434   -0.4125    0.0000 C   0  0  0  0  0  0  0  0  0  0  0  0
    2.8579   -0.8250    0.0000 F   0  0  0  0  0  0  0  0  0  0  0  0
    1.7309   -1.1270    0.0000 F   0  0  0  0  0  0  0  0  0  0  0  0
    2.5559    0.3020    0.0000 F   0  0  0  0  0  0  0  0  0  0  0  0
  1  2  1  0  0  0  0
  2  3  2  0  0  0  0
  3  4  1  0  0  0  0
  4  5  2  0  0  0  0
  5  6  1  0  0  0  0
  6  7  2  0  0  0  0
  2  7  1  0  0  0  0
  4  8  1  0  0  0  0
  8  9  1  0  0  0  0
  8 10  1  0  0  0  0
  8 11  1  0  0  0  0
M  END
>  <Catalog ID>
Z1203161727

>  <PlateID>
1198308-R-SPFL-07

>  <Well>
F03

>  <MW (desalted)>
162.113

>  <ClogP>
1.417

>  <HBD>
1

>  <TPSA>
38.910

>  <RotBonds>
1

$$$$

            

 11 11  0  0  0  0            999 V2000
    1.2822    2.3518    0.0000 C   0  0  0  0  0  0  0  0  0  0  0  0
    0.5678    1.9393    0.0000 C   0  0  0  0  0  0  0  0  0  0  0  0
   -0.1467    2.3518    0.0000 C   0  0  0  0  0  0  0  0  0  0  0  0
    0.5678    1.1143    0.0000 C   0  0  0  0  0  0  0  0  0  0  0  0
    1.2352    0.6294    0.0000 N   0  0  0  0  0  0  0  0  0  0  0  0
    0.9803   -0.1553    0.0000 N   0  0  0  0  0  0  0  0  0  0  0  0
    0.1553   -0.1553    0.0000 C   0  0  0  0  0  0  0  0  0  0  0  0
   -0.0997    0.6294    0.0000 N   0  0  0  0  0  0  0  0  0  0  0  0
   -0.3297   -0.8227    0.0000 C   0  0  0  0  0  0  0  0  0  0  0  0
    0.0059   -1.5764    0.0000 F   0  0  0  0  0  0  0  0  0  0  0  0
   -1.1501   -0.7365    0.0000 F   0  0  0  0  0  0  0  0  0  0  0  0
  1  2  1  0  0  0  0
  2  3  1  0  0  0  0
  2  4  1  0  0  0  0
  4  5  2  0  0  0  0
  5  6  1  0  0  0  0
  6  7  1  0  0  0  0
  7  8  2  0  0  0  0
  4  8  1  0  0  0  0
  7  9  1  0  0  0  0
  9 10  1  0  0  0  0
  9 11  1  0  0  0  0
M  END
>  <Catalog ID>
Z803077360

>  <PlateID>
1198308-R-SPFL-07

>  <Well>
F04

>  <MW (desalted)>
161.153

>  <ClogP>
1.111

>  <HBD>
1

>  <TPSA>
41.570

>  <RotBonds>
2

$$$$

            

 12 12  0  0  0  0            999 V2000
    0.0000    2.4750    0.0000 C   0  0  0  0  0  0  0  0  0  0  0  0
    0.7145    2.0625    0.0000 O   0  0  0  0  0  0  0  0  0  0  0  0
    0.7145    1.2375    0.0000 C   0  0  0  0  0  0  0  0  0  0  0  0
    1.4289    0.8250    0.0000 C   0  0  0  0  0  0  0  0  0  0  0  0
    1.4289   -0.0000    0.0000 C   0  0  0  0  0  0  0  0  0  0  0  0
    2.1434   -0.4125    0.0000 C   0  0  0  0  0  0  0  0  0  0  0  0
    2.8579   -0.0000    0.0000 N   0  0  0  0  0  0  0  0  0  0  0  0
    0.7145   -0.4125    0.0000 C   0  0  0  0  0  0  0  0  0  0  0  0
    0.0000    0.0000    0.0000 C   0  0  0  0  0  0  0  0  0  0  0  0
   -0.7145   -0.4125    0.0000 O   0  0  0  0  0  0  0  0  0  0  0  0
   -1.4289    0.0000    0.0000 C   0  0  0  0  0  0  0  0  0  0  0  0
    0.0000    0.8250    0.0000 C   0  0  0  0  0  0  0  0  0  0  0  0
  1  2  1  0  0  0  0
  2  3  1  0  0  0  0
  3  4  2  0  0  0  0
  4  5  1  0  0  0  0
  5  6  1  0  0  0  0
  6  7  1  0  0  0  0
  5  8  2  0  0  0  0
  8  9  1  0  0  0  0
  9 10  1  0  0  0  0
 10 11  1  0  0  0  0
  9 12  2  0  0  0  0
  3 12  1  0  0  0  0
M  END
>  <Catalog ID>
Z291234154

>  <PlateID>
1198308-R-SPFL-07

>  <Well>
F05

>  <MW (desalted)>
167.205

>  <ClogP>
1.102

>  <HBD>
1

>  <TPSA>
44.480

>  <RotBonds>
3

$$$$

            

 10 11  0  0  0  0            999 V2000
    3.2789    2.0625    0.0000 N   0  0  0  0  0  0  0  0  0  0  0  0
    3.2789    1.2375    0.0000 C   0  0  0  0  0  0  0  0  0  0  0  0
    3.9934    0.8250    0.0000 C   0  0  0  0  0  0  0  0  0  0  0  0
    3.9934    0.0000    0.0000 C   0  0  0  0  0  0  0  0  0  0  0  0
    3.2789   -0.4125    0.0000 C   0  0  0  0  0  0  0  0  0  0  0  0
    2.5645    0.0000    0.0000 C   0  0  0  0  0  0  0  0  0  0  0  0
    1.7798   -0.2549    0.0000 S   0  0  0  0  0  0  0  0  0  0  0  0
    1.2949    0.4125    0.0000 C   0  0  0  0  0  0  0  0  0  0  0  0
    1.7798    1.0799    0.0000 C   0  0  0  0  0  0  0  0  0  0  0  0
    2.5645    0.8250    0.0000 C   0  0  0  0  0  0  0  0  0  0  0  0
  1  2  1  0  0  0  0
  2  3  1  0  0  0  0
  3  4  1  0  0  0  0
  4  5  1  0  0  0  0
  5  6  1  0  0  0  0
  6  7  1  0  0  0  0
  7  8  1  0  0  0  0
  8  9  2  0  0  0  0
  9 10  1  0  0  0  0
  2 10  1  0  0  0  0
  6 10  2  0  0  0  0
M  END
>  <Catalog ID>
Z1021395154

>  <PlateID>
1198308-R-SPFL-07

>  <Well>
F06

>  <MW (desalted)>
153.245

>  <ClogP>
1.713

>  <HBD>
1

>  <TPSA>
26.020

>  <RotBonds>
0

$$$$

            

 11 12  0  0  0  0            999 V2000
    4.0668    3.1729    0.0000 N   0  0  0  0  0  0  0  0  0  0  0  0
    4.0668    2.3479    0.0000 C   0  0  0  0  0  0  0  0  0  0  0  0
    3.3523    1.9354    0.0000 C   0  0  0  0  0  0  0  0  0  0  0  0
    3.3523    1.1104    0.0000 C   0  0  0  0  0  0  0  0  0  0  0  0
    2.6378    0.6979    0.0000 C   0  0  0  0  0  0  0  0  0  0  0  0
    1.9233    1.1104    0.0000 C   0  0  0  0  0  0  0  0  0  0  0  0
    1.1387    0.8555    0.0000 C   0  0  0  0  0  0  0  0  0  0  0  0
    0.6538    1.5229    0.0000 C   0  0  0  0  0  0  0  0  0  0  0  0
    1.1387    2.1904    0.0000 O   0  0  0  0  0  0  0  0  0  0  0  0
    1.9233    1.9354    0.0000 C   0  0  0  0  0  0  0  0  0  0  0  0
    2.6378    2.3479    0.0000 C   0  0  0  0  0  0  0  0  0  0  0  0
  1  2  1  0  0  0  0
  2  3  1  0  0  0  0
  3  4  2  0  0  0  0
  4  5  1  0  0  0  0
  5  6  2  0  0  0  0
  6  7  1  0  0  0  0
  7  8  2  0  0  0  0
  8  9  1  0  0  0  0
  9 10  1  0  0  0  0
  6 10  1  0  0  0  0
 10 11  2  0  0  0  0
  3 11  1  0  0  0  0
M  END
>  <Catalog ID>
Z965074230

>  <PlateID>
1198308-R-SPFL-07

>  <Well>
F07

>  <MW (desalted)>
147.174

>  <ClogP>
1.654

>  <HBD>
1

>  <TPSA>
39.160

>  <RotBonds>
1

$$$$

            

 14 15  0  0  0  0            999 V2000
    1.4289   -0.0000    0.0000 N   0  0  0  0  0  0  0  0  0  0  0  0
    0.7145   -0.4125    0.0000 C   0  0  0  0  0  0  0  0  0  0  0  0
    0.7145   -1.2375    0.0000 C   0  0  0  0  0  0  0  0  0  0  0  0
    1.4289   -1.6500    0.0000 C   0  0  0  0  0  0  0  0  0  0  0  0
    1.4289   -2.4750    0.0000 C   0  0  0  0  0  0  0  0  0  0  0  0
    0.7145   -2.8875    0.0000 C   0  0  0  0  0  0  0  0  0  0  0  0
    0.0000   -2.4750    0.0000 C   0  0  0  0  0  0  0  0  0  0  0  0
    0.0000   -1.6500    0.0000 C   0  0  0  0  0  0  0  0  0  0  0  0
   -0.7145   -2.8875    0.0000 C   0  0  0  0  0  0  0  0  0  0  0  0
   -0.7145   -3.7125    0.0000 C   0  0  0  0  0  0  0  0  0  0  0  0
   -1.4289   -4.1250    0.0000 C   0  0  0  0  0  0  0  0  0  0  0  0
   -2.1434   -3.7125    0.0000 C   0  0  0  0  0  0  0  0  0  0  0  0
   -2.1434   -2.8875    0.0000 N   0  0  0  0  0  0  0  0  0  0  0  0
   -1.4289   -2.4750    0.0000 C   0  0  0  0  0  0  0  0  0  0  0  0
  1  2  1  0  0  0  0
  2  3  1  0  0  0  0
  3  4  2  0  0  0  0
  4  5  1  0  0  0  0
  5  6  2  0  0  0  0
  6  7  1  0  0  0  0
  7  8  2  0  0  0  0
  3  8  1  0  0  0  0
  7  9  1  0  0  0  0
  9 10  2  0  0  0  0
 10 11  1  0  0  0  0
 11 12  2  0  0  0  0
 12 13  1  0  0  0  0
 13 14  2  0  0  0  0
  9 14  1  0  0  0  0
M  END
>  <Catalog ID>
Z732839762

>  <PlateID>
1198308-R-SPFL-07

>  <Well>
F08

>  <MW (desalted)>
184.237

>  <ClogP>
1.485

>  <HBD>
1

>  <TPSA>
38.910

>  <RotBonds>
2

$$$$

            

 11 11  0  0  0  0            999 V2000
    1.2822    3.1768    0.0000 C   0  0  0  0  0  0  0  0  0  0  0  0
    1.2822    2.3518    0.0000 C   0  0  0  0  0  0  0  0  0  0  0  0
    1.9967    1.9393    0.0000 C   0  0  0  0  0  0  0  0  0  0  0  0
    0.5678    1.9393    0.0000 C   0  0  0  0  0  0  0  0  0  0  0  0
    0.5678    1.1143    0.0000 N   0  0  0  0  0  0  0  0  0  0  0  0
    1.2352    0.6294    0.0000 C   0  0  0  0  0  0  0  0  0  0  0  0
    0.9803   -0.1553    0.0000 C   0  0  0  0  0  0  0  0  0  0  0  0
    0.1553   -0.1553    0.0000 N   0  0  0  0  0  0  0  0  0  0  0  0
   -0.0997    0.6294    0.0000 C   0  0  0  0  0  0  0  0  0  0  0  0
   -0.8843    0.8843    0.0000 C   0  0  0  0  0  0  0  0  0  0  0  0
   -1.4974    0.3323    0.0000 N   0  0  0  0  0  0  0  0  0  0  0  0
  1  2  1  0  0  0  0
  2  3  1  0  0  0  0
  2  4  1  0  0  0  0
  4  5  1  0  0  0  0
  5  6  1  0  0  0  0
  6  7  2  0  0  0  0
  7  8  1  0  0  0  0
  8  9  2  0  0  0  0
  5  9  1  0  0  0  0
  9 10  1  0  0  0  0
 10 11  1  0  0  0  0
M  END
>  <Catalog ID>
Z965811490

>  <PlateID>
1198308-R-SPFL-07

>  <Well>
F09

>  <MW (desalted)>
153.225

>  <ClogP>
0.396

>  <HBD>
1

>  <TPSA>
43.840

>  <RotBonds>
3

$$$$

            

 14 15  0  0  0  0            999 V2000
   -0.1781   -3.1062    0.0000 C   0  0  0  0  0  0  0  0  0  0  0  0
    0.0768   -2.3215    0.0000 C   0  0  0  0  0  0  0  0  0  0  0  0
   -0.4752   -1.7084    0.0000 C   0  0  0  0  0  0  0  0  0  0  0  0
    0.8838   -2.1500    0.0000 C   0  0  0  0  0  0  0  0  0  0  0  0
    1.4358   -2.7631    0.0000 N   0  0  0  0  0  0  0  0  0  0  0  0
    1.1387   -1.3654    0.0000 C   0  0  0  0  0  0  0  0  0  0  0  0
    0.6538   -0.6979    0.0000 N   0  0  0  0  0  0  0  0  0  0  0  0
    1.1387   -0.0305    0.0000 N   0  0  0  0  0  0  0  0  0  0  0  0
    1.9233   -0.2854    0.0000 C   0  0  0  0  0  0  0  0  0  0  0  0
    2.6378    0.1271    0.0000 C   0  0  0  0  0  0  0  0  0  0  0  0
    3.3523   -0.2854    0.0000 C   0  0  0  0  0  0  0  0  0  0  0  0
    3.3523   -1.1104    0.0000 C   0  0  0  0  0  0  0  0  0  0  0  0
    2.6378   -1.5229    0.0000 C   0  0  0  0  0  0  0  0  0  0  0  0
    1.9233   -1.1104    0.0000 N   0  0  0  0  0  0  0  0  0  0  0  0
  1  2  1  0  0  0  0
  2  3  1  0  0  0  0
  2  4  1  0  0  0  0
  4  5  1  0  0  0  0
  4  6  1  0  0  0  0
  6  7  2  0  0  0  0
  7  8  1  0  0  0  0
  8  9  2  0  0  0  0
  9 10  1  0  0  0  0
 10 11  2  0  0  0  0
 11 12  1  0  0  0  0
 12 13  2  0  0  0  0
 13 14  1  0  0  0  0
  6 14  1  0  0  0  0
  9 14  1  0  0  0  0
M  END
>  <Catalog ID>
Z228589876

>  <PlateID>
1198308-R-SPFL-07

>  <Well>
F10

>  <MW (desalted)>
190.245

>  <ClogP>
0.499

>  <HBD>
1

>  <TPSA>
56.210

>  <RotBonds>
2

$$$$

            

 10 10  0  0  0  0            999 V2000
    0.0000    3.3000    0.0000 F   0  0  0  0  0  0  0  0  0  0  0  0
    0.0000    2.4750    0.0000 C   0  0  0  0  0  0  0  0  0  0  0  0
   -0.7145    2.0625    0.0000 F   0  0  0  0  0  0  0  0  0  0  0  0
    0.7145    2.0625    0.0000 C   0  0  0  0  0  0  0  0  0  0  0  0
    0.7145    1.2375    0.0000 N   0  0  0  0  0  0  0  0  0  0  0  0
    1.4289    0.8250    0.0000 C   0  0  0  0  0  0  0  0  0  0  0  0
    1.4289   -0.0000    0.0000 C   0  0  0  0  0  0  0  0  0  0  0  0
    0.7145   -0.4125    0.0000 N   0  0  0  0  0  0  0  0  0  0  0  0
    0.0000    0.0000    0.0000 C   0  0  0  0  0  0  0  0  0  0  0  0
    0.0000    0.8250    0.0000 C   0  0  0  0  0  0  0  0  0  0  0  0
  1  2  1  0  0  0  0
  2  3  1  0  0  0  0
  2  4  1  0  0  0  0
  4  5  1  0  0  0  0
  5  6  1  0  0  0  0
  6  7  1  0  0  0  0
  7  8  1  0  0  0  0
  8  9  1  0  0  0  0
  9 10  1  0  0  0  0
  5 10  1  0  0  0  0
M  END
>  <Catalog ID>
Z608351524

>  <PlateID>
1198308-R-SPFL-07

>  <Well>
F11

>  <MW (desalted)>
150.170

>  <ClogP>
0.337

>  <HBD>
1

>  <TPSA>
15.270

>  <RotBonds>
2

$$$$

            

 13 12  0  0  0  0            999 V2000
    0.0000    0.0000    0.0000 Cl  0  0  0  0  0  0  0  0  0  0  0  0
    2.0036    0.0000    0.0000 Cl  0  0  0  0  0  0  0  0  0  0  0  0
    2.1190   -2.3645    0.0000 C   0  0  0  0  0  0  0  0  0  0  0  0
    1.2940   -2.3645    0.0000 N   0  0  0  0  0  0  0  0  0  0  0  0
    0.8815   -3.0789    0.0000 C   0  0  0  0  0  0  0  0  0  0  0  0
    0.0565   -3.0789    0.0000 C   0  0  0  0  0  0  0  0  0  0  0  0
   -0.3560   -2.3645    0.0000 C   0  0  0  0  0  0  0  0  0  0  0  0
   -0.8409   -3.0319    0.0000 C   0  0  0  0  0  0  0  0  0  0  0  0
   -1.6256   -2.7770    0.0000 C   0  0  0  0  0  0  0  0  0  0  0  0
   -1.6256   -1.9520    0.0000 N   0  0  0  0  0  0  0  0  0  0  0  0
   -0.8409   -1.6970    0.0000 C   0  0  0  0  0  0  0  0  0  0  0  0
    0.0565   -1.6500    0.0000 C   0  0  0  0  0  0  0  0  0  0  0  0
    0.8815   -1.6500    0.0000 C   0  0  0  0  0  0  0  0  0  0  0  0
  3  4  1  0  0  0  0
  4  5  1  0  0  0  0
  5  6  1  0  0  0  0
  6  7  1  0  0  0  0
  7  8  1  0  0  0  0
  8  9  1  0  0  0  0
  9 10  1  0  0  0  0
 10 11  1  0  0  0  0
  7 11  1  0  0  0  0
  7 12  1  0  0  0  0
 12 13  1  0  0  0  0
  4 13  1  0  0  0  0
M  END
>  <Catalog ID>
Z2242071395

>  <PlateID>
1198308-R-SPFL-07

>  <Well>
G02

>  <MW (desalted)>
154.253

>  <ClogP>
0.394

>  <HBD>
1

>  <TPSA>
15.270

>  <RotBonds>
0

$$$$

            

 11 12  0  0  0  0            999 V2000
    0.0768   -2.3215    0.0000 N   0  0  0  0  0  0  0  0  0  0  0  0
    0.8838   -2.1500    0.0000 C   0  0  0  0  0  0  0  0  0  0  0  0
    1.1387   -1.3654    0.0000 C   0  0  0  0  0  0  0  0  0  0  0  0
    0.6538   -0.6979    0.0000 N   0  0  0  0  0  0  0  0  0  0  0  0
    1.1387   -0.0305    0.0000 O   0  0  0  0  0  0  0  0  0  0  0  0
    1.9233   -0.2854    0.0000 C   0  0  0  0  0  0  0  0  0  0  0  0
    2.6378    0.1271    0.0000 C   0  0  0  0  0  0  0  0  0  0  0  0
    3.3523   -0.2854    0.0000 C   0  0  0  0  0  0  0  0  0  0  0  0
    3.3523   -1.1104    0.0000 C   0  0  0  0  0  0  0  0  0  0  0  0
    2.6378   -1.5229    0.0000 C   0  0  0  0  0  0  0  0  0  0  0  0
    1.9233   -1.1104    0.0000 C   0  0  0  0  0  0  0  0  0  0  0  0
  1  2  1  0  0  0  0
  2  3  1  0  0  0  0
  3  4  2  0  0  0  0
  4  5  1  0  0  0  0
  5  6  1  0  0  0  0
  6  7  2  0  0  0  0
  7  8  1  0  0  0  0
  8  9  2  0  0  0  0
  9 10  1  0  0  0  0
 10 11  2  0  0  0  0
  3 11  1  0  0  0  0
  6 11  1  0  0  0  0
M  END
>  <Catalog ID>
Z1203581810

>  <PlateID>
1198308-R-SPFL-07

>  <Well>
G03

>  <MW (desalted)>
148.162

>  <ClogP>
0.457

>  <HBD>
1

>  <TPSA>
52.050

>  <RotBonds>
1

$$$$

            

 10 10  0  0  0  0            999 V2000
    0.1421    3.4257    0.0000 C   0  0  0  0  0  0  0  0  0  0  0  0
    0.1421    2.6007    0.0000 O   0  0  0  0  0  0  0  0  0  0  0  0
    0.8566    2.1882    0.0000 C   0  0  0  0  0  0  0  0  0  0  0  0
    0.8566    1.3632    0.0000 C   0  0  0  0  0  0  0  0  0  0  0  0
    1.5999    1.0053    0.0000 C   0  0  0  0  0  0  0  0  0  0  0  0
    1.7834    0.2009    0.0000 C   0  0  0  0  0  0  0  0  0  0  0  0
    1.2691   -0.4441    0.0000 C   0  0  0  0  0  0  0  0  0  0  0  0
    0.4441   -0.4441    0.0000 N   0  0  0  0  0  0  0  0  0  0  0  0
   -0.0703    0.2009    0.0000 C   0  0  0  0  0  0  0  0  0  0  0  0
    0.1133    1.0053    0.0000 C   0  0  0  0  0  0  0  0  0  0  0  0
  1  2  1  0  0  0  0
  2  3  1  0  0  0  0
  3  4  1  0  0  0  0
  4  5  1  0  0  0  0
  5  6  1  0  0  0  0
  6  7  1  0  0  0  0
  7  8  1  0  0  0  0
  8  9  1  0  0  0  0
  9 10  1  0  0  0  0
  4 10  1  0  0  0  0
M  END
>  <Catalog ID>
Z1509338356

>  <PlateID>
1198308-R-SPFL-07

>  <Well>
G04

>  <MW (desalted)>
143.227

>  <ClogP>
0.742

>  <HBD>
1

>  <TPSA>
21.260

>  <RotBonds>
2

$$$$

            

 12 13  0  0  0  0            999 V2000
    0.0768   -2.3215    0.0000 O   0  0  0  0  0  0  0  0  0  0  0  0
    0.8838   -2.1500    0.0000 C   0  0  0  0  0  0  0  0  0  0  0  0
    1.4358   -2.7631    0.0000 O   0  0  0  0  0  0  0  0  0  0  0  0
    1.1387   -1.3654    0.0000 C   0  0  0  0  0  0  0  0  0  0  0  0
    0.6538   -0.6979    0.0000 C   0  0  0  0  0  0  0  0  0  0  0  0
    1.1387   -0.0305    0.0000 C   0  0  0  0  0  0  0  0  0  0  0  0
    1.9233   -0.2854    0.0000 N   0  0  0  0  0  0  0  0  0  0  0  0
    2.6378    0.1271    0.0000 N   0  0  0  0  0  0  0  0  0  0  0  0
    3.3523   -0.2854    0.0000 C   0  0  0  0  0  0  0  0  0  0  0  0
    3.3523   -1.1104    0.0000 C   0  0  0  0  0  0  0  0  0  0  0  0
    2.6378   -1.5229    0.0000 C   0  0  0  0  0  0  0  0  0  0  0  0
    1.9233   -1.1104    0.0000 C   0  0  0  0  0  0  0  0  0  0  0  0
  1  2  1  0  0  0  0
  2  3  2  0  0  0  0
  2  4  1  0  0  0  0
  4  5  1  0  0  0  0
  5  6  2  0  0  0  0
  6  7  1  0  0  0  0
  7  8  1  0  0  0  0
  8  9  2  0  0  0  0
  9 10  1  0  0  0  0
 10 11  2  0  0  0  0
 11 12  1  0  0  0  0
  4 12  2  0  0  0  0
  7 12  1  0  0  0  0
M  END
>  <Catalog ID>
Z1416172437

>  <PlateID>
1198308-R-SPFL-07

>  <Well>
G05

>  <MW (desalted)>
162.145

>  <ClogP>
1.482

>  <HBD>
1

>  <TPSA>
54.600

>  <RotBonds>
1

$$$$

            

 12 13  0  0  0  0            999 V2000
    1.2978   -0.6541    0.0000 C   0  0  0  0  0  0  0  0  0  0  0  0
    0.7145   -1.2375    0.0000 C   0  0  0  0  0  0  0  0  0  0  0  0
    0.1311   -0.6541    0.0000 C   0  0  0  0  0  0  0  0  0  0  0  0
    1.2978   -1.8209    0.0000 C   0  0  0  0  0  0  0  0  0  0  0  0
    0.7145   -2.4042    0.0000 N   0  0  0  0  0  0  0  0  0  0  0  0
    0.1311   -1.8209    0.0000 C   0  0  0  0  0  0  0  0  0  0  0  0
   -0.6939   -1.8209    0.0000 C   0  0  0  0  0  0  0  0  0  0  0  0
   -1.1064   -2.5353    0.0000 C   0  0  0  0  0  0  0  0  0  0  0  0
   -1.9314   -2.5353    0.0000 C   0  0  0  0  0  0  0  0  0  0  0  0
   -2.3439   -1.8209    0.0000 N   0  0  0  0  0  0  0  0  0  0  0  0
   -1.9314   -1.1064    0.0000 C   0  0  0  0  0  0  0  0  0  0  0  0
   -1.1064   -1.1064    0.0000 C   0  0  0  0  0  0  0  0  0  0  0  0
  1  2  1  0  0  0  0
  2  3  1  0  0  0  0
  2  4  1  0  0  0  0
  4  5  1  0  0  0  0
  5  6  1  0  0  0  0
  2  6  1  0  0  0  0
  6  7  1  0  0  0  0
  7  8  2  0  0  0  0
  8  9  1  0  0  0  0
  9 10  2  0  0  0  0
 10 11  1  0  0  0  0
 11 12  2  0  0  0  0
  7 12  1  0  0  0  0
M  END
>  <Catalog ID>
Z2140518654

>  <PlateID>
1198308-R-SPFL-07

>  <Well>
G06

>  <MW (desalted)>
162.232

>  <ClogP>
0.916

>  <HBD>
1

>  <TPSA>
24.920

>  <RotBonds>
1

$$$$

            

 14 15  0  0  0  0            999 V2000
    0.8838   -2.1500    0.0000 C   0  0  0  0  0  0  0  0  0  0  0  0
    1.1387   -1.3654    0.0000 N   0  0  0  0  0  0  0  0  0  0  0  0
    0.6538   -0.6979    0.0000 C   0  0  0  0  0  0  0  0  0  0  0  0
    1.1387   -0.0305    0.0000 C   0  0  0  0  0  0  0  0  0  0  0  0
    1.9233   -0.2854    0.0000 C   0  0  0  0  0  0  0  0  0  0  0  0
    2.6378    0.1271    0.0000 C   0  0  0  0  0  0  0  0  0  0  0  0
    3.3523   -0.2854    0.0000 C   0  0  0  0  0  0  0  0  0  0  0  0
    3.3523   -1.1104    0.0000 C   0  0  0  0  0  0  0  0  0  0  0  0
    2.6378   -1.5229    0.0000 C   0  0  0  0  0  0  0  0  0  0  0  0
    1.9233   -1.1104    0.0000 C   0  0  0  0  0  0  0  0  0  0  0  0
    0.8838    0.7541    0.0000 S   0  0  0  0  0  0  0  0  0  0  0  0
    0.6288    1.5387    0.0000 O   0  0  0  0  0  0  0  0  0  0  0  0
    1.6684    1.0091    0.0000 O   0  0  0  0  0  0  0  0  0  0  0  0
    0.0992    0.4992    0.0000 N   0  0  0  0  0  0  0  0  0  0  0  0
  1  2  1  0  0  0  0
  2  3  1  0  0  0  0
  3  4  2  0  0  0  0
  4  5  1  0  0  0  0
  5  6  2  0  0  0  0
  6  7  1  0  0  0  0
  7  8  2  0  0  0  0
  8  9  1  0  0  0  0
  9 10  2  0  0  0  0
  2 10  1  0  0  0  0
  5 10  1  0  0  0  0
  4 11  1  0  0  0  0
 11 12  2  0  0  0  0
 11 13  2  0  0  0  0
 11 14  1  0  0  0  0
M  END
>  <Catalog ID>
Z1416195814

>  <PlateID>
1198308-R-SPFL-07

>  <Well>
G07

>  <MW (desalted)>
210.253

>  <ClogP>
1.095

>  <HBD>
1

>  <TPSA>
65.090

>  <RotBonds>
1

$$$$

            

 13 14  0  0  0  0            999 V2000
   -0.5837   -1.4124    0.0000 C   0  0  0  0  0  0  0  0  0  0  0  0
   -0.1712   -0.6979    0.0000 C   0  0  0  0  0  0  0  0  0  0  0  0
   -0.5837    0.0165    0.0000 C   0  0  0  0  0  0  0  0  0  0  0  0
    0.6538   -0.6979    0.0000 N   0  0  0  0  0  0  0  0  0  0  0  0
    1.1387   -0.0305    0.0000 C   0  0  0  0  0  0  0  0  0  0  0  0
    1.9233   -0.2854    0.0000 C   0  0  0  0  0  0  0  0  0  0  0  0
    2.6378    0.1271    0.0000 C   0  0  0  0  0  0  0  0  0  0  0  0
    3.3523   -0.2854    0.0000 C   0  0  0  0  0  0  0  0  0  0  0  0
    3.3523   -1.1104    0.0000 C   0  0  0  0  0  0  0  0  0  0  0  0
    2.6378   -1.5229    0.0000 C   0  0  0  0  0  0  0  0  0  0  0  0
    2.6378   -2.3479    0.0000 N   0  0  0  0  0  0  0  0  0  0  0  0
    1.9233   -1.1104    0.0000 C   0  0  0  0  0  0  0  0  0  0  0  0
    1.1387   -1.3654    0.0000 N   0  0  0  0  0  0  0  0  0  0  0  0
  1  2  1  0  0  0  0
  2  3  1  0  0  0  0
  2  4  1  0  0  0  0
  4  5  1  0  0  0  0
  5  6  2  0  0  0  0
  6  7  1  0  0  0  0
  7  8  1  0  0  0  0
  8  9  1  0  0  0  0
  9 10  1  0  0  0  0
 10 11  1  0  0  0  0
 10 12  1  0  0  0  0
  6 12  1  0  0  0  0
 12 13  2  0  0  0  0
  4 13  1  0  0  0  0
M  END
>  <Catalog ID>
Z1187834927

>  <PlateID>
1198308-R-SPFL-07

>  <Well>
G08

>  <MW (desalted)>
179.262

>  <ClogP>
0.790

>  <HBD>
1

>  <TPSA>
43.840

>  <RotBonds>
1

$$$$

            

 12 12  0  0  0  0            999 V2000
    0.0000    0.0000    0.0000 Cl  0  0  0  0  0  0  0  0  0  0  0  0
    2.4691    0.0621    0.0000 C   0  0  0  0  0  0  0  0  0  0  0  0
    2.4691   -0.7629    0.0000 C   0  0  0  0  0  0  0  0  0  0  0  0
    3.0524   -1.3462    0.0000 C   0  0  0  0  0  0  0  0  0  0  0  0
    2.4691   -1.9296    0.0000 C   0  0  0  0  0  0  0  0  0  0  0  0
    1.8857   -1.3462    0.0000 N   0  0  0  0  0  0  0  0  0  0  0  0
    3.1835    0.4746    0.0000 C   0  0  0  0  0  0  0  0  0  0  0  0
    3.1835    1.2996    0.0000 C   0  0  0  0  0  0  0  0  0  0  0  0
    3.8980    1.7121    0.0000 C   0  0  0  0  0  0  0  0  0  0  0  0
    4.6125    1.2996    0.0000 C   0  0  0  0  0  0  0  0  0  0  0  0
    4.6125    0.4746    0.0000 C   0  0  0  0  0  0  0  0  0  0  0  0
    3.8980    0.0621    0.0000 C   0  0  0  0  0  0  0  0  0  0  0  0
  2  3  1  0  0  0  0
  3  4  1  0  0  0  0
  4  5  1  0  0  0  0
  5  6  1  0  0  0  0
  3  6  1  0  0  0  0
  2  7  1  0  0  0  0
  7  8  2  0  0  0  0
  8  9  1  0  0  0  0
  9 10  2  0  0  0  0
 10 11  1  0  0  0  0
 11 12  2  0  0  0  0
  7 12  1  0  0  0  0
M  END
>  <Catalog ID>
Z1324054892

>  <PlateID>
1198308-R-SPFL-07

>  <Well>
G09

>  <MW (desalted)>
147.217

>  <ClogP>
1.904

>  <HBD>
1

>  <TPSA>
12.030

>  <RotBonds>
2

$$$$

            

 10 10  0  0  0  0            999 V2000
    0.0000    2.4750    0.0000 C   0  0  0  0  0  0  0  0  0  0  0  0
    0.7145    2.0625    0.0000 C   0  0  0  0  0  0  0  0  0  0  0  0
    1.4289    2.4750    0.0000 N   0  0  0  0  0  0  0  0  0  0  0  0
    0.7145    1.2375    0.0000 C   0  0  0  0  0  0  0  0  0  0  0  0
    1.4289    0.8250    0.0000 N   0  0  0  0  0  0  0  0  0  0  0  0
    1.4289   -0.0000    0.0000 C   0  0  0  0  0  0  0  0  0  0  0  0
    0.7145   -0.4125    0.0000 C   0  0  0  0  0  0  0  0  0  0  0  0
    0.0000    0.0000    0.0000 C   0  0  0  0  0  0  0  0  0  0  0  0
    0.0000    0.8250    0.0000 C   0  0  0  0  0  0  0  0  0  0  0  0
   -0.7145    1.2375    0.0000 F   0  0  0  0  0  0  0  0  0  0  0  0
  1  2  1  0  0  0  0
  2  3  1  0  0  0  0
  2  4  1  0  0  0  0
  4  5  2  0  0  0  0
  5  6  1  0  0  0  0
  6  7  2  0  0  0  0
  7  8  1  0  0  0  0
  8  9  2  0  0  0  0
  4  9  1  0  0  0  0
  9 10  1  0  0  0  0
M  END
>  <Catalog ID>
Z1198737192

>  <PlateID>
1198308-R-SPFL-07

>  <Well>
G10

>  <MW (desalted)>
140.158

>  <ClogP>
0.133

>  <HBD>
1

>  <TPSA>
38.910

>  <RotBonds>
1

$$$$

            

 11 12  0  0  0  0            999 V2000
    0.0768   -2.3215    0.0000 C   0  0  0  0  0  0  0  0  0  0  0  0
    0.8838   -2.1500    0.0000 C   0  0  0  0  0  0  0  0  0  0  0  0
    1.1387   -1.3654    0.0000 N   0  0  0  0  0  0  0  0  0  0  0  0
    0.6538   -0.6979    0.0000 C   0  0  0  0  0  0  0  0  0  0  0  0
    1.1387   -0.0305    0.0000 N   0  0  0  0  0  0  0  0  0  0  0  0
    1.9233   -0.2854    0.0000 C   0  0  0  0  0  0  0  0  0  0  0  0
    2.6378    0.1271    0.0000 C   0  0  0  0  0  0  0  0  0  0  0  0
    3.3523   -0.2854    0.0000 C   0  0  0  0  0  0  0  0  0  0  0  0
    3.3523   -1.1104    0.0000 C   0  0  0  0  0  0  0  0  0  0  0  0
    2.6378   -1.5229    0.0000 C   0  0  0  0  0  0  0  0  0  0  0  0
    1.9233   -1.1104    0.0000 C   0  0  0  0  0  0  0  0  0  0  0  0
  1  2  2  0  0  0  0
  2  3  1  0  0  0  0
  3  4  1  0  0  0  0
  4  5  2  0  0  0  0
  5  6  1  0  0  0  0
  6  7  2  0  0  0  0
  7  8  1  0  0  0  0
  8  9  2  0  0  0  0
  9 10  1  0  0  0  0
 10 11  2  0  0  0  0
  3 11  1  0  0  0  0
  6 11  1  0  0  0  0
M  END
>  <Catalog ID>
Z87001578

>  <PlateID>
1198308-R-SPFL-07

>  <Well>
G11

>  <MW (desalted)>
144.173

>  <ClogP>
1.816

>  <HBD>
0

>  <TPSA>
17.820

>  <RotBonds>
1

$$$$

            

 11 10  0  0  1  0            999 V2000
    0.0000    0.0000    0.0000 Cl  0  0  0  0  0  0  0  0  0  0  0  0
    2.3571    2.0213    0.0000 N   0  0  0  0  0  0  0  0  0  0  0  0
    2.3571    1.1963    0.0000 C   0  0  0  0  0  0  0  0  0  0  0  0
    3.0716    0.7838    0.0000 C   0  0  1  0  0  0  0  0  0  0  0  0
    3.7861    1.1963    0.0000 F   0  0  0  0  0  0  0  0  0  0  0  0
    3.0716   -0.0412    0.0000 C   0  0  0  0  0  0  0  0  0  0  0  0
    3.7861   -0.4538    0.0000 C   0  0  0  0  0  0  0  0  0  0  0  0
    3.7861   -1.2788    0.0000 C   0  0  0  0  0  0  0  0  0  0  0  0
    3.0716   -1.6913    0.0000 C   0  0  0  0  0  0  0  0  0  0  0  0
    2.3571   -1.2787    0.0000 C   0  0  0  0  0  0  0  0  0  0  0  0
    2.3571   -0.4537    0.0000 C   0  0  0  0  0  0  0  0  0  0  0  0
  2  3  1  0  0  0  0
  4  3  1  0  0  0  0
  4  5  1  1  0  0  0
  4  6  1  0  0  0  0
  6  7  2  0  0  0  0
  7  8  1  0  0  0  0
  8  9  2  0  0  0  0
  9 10  1  0  0  0  0
 10 11  2  0  0  0  0
  6 11  1  0  0  0  0
M  END
>  <Catalog ID>
Z2418414247

>  <PlateID>
1198308-R-SPFL-07

>  <Well>
H02

>  <MW (desalted)>
139.170

>  <ClogP>
1.506

>  <HBD>
1

>  <TPSA>
26.020

>  <RotBonds>
2

$$$$

            

 12 13  0  0  0  0            999 V2000
    0.0000   -2.4750    0.0000 C   0  0  0  0  0  0  0  0  0  0  0  0
    0.0000   -1.6500    0.0000 O   0  0  0  0  0  0  0  0  0  0  0  0
    0.7145   -1.2375    0.0000 C   0  0  0  0  0  0  0  0  0  0  0  0
    0.7145   -0.4125    0.0000 C   0  0  0  0  0  0  0  0  0  0  0  0
    1.4289    0.0000    0.0000 N   0  0  0  0  0  0  0  0  0  0  0  0
    2.1434   -0.4125    0.0000 C   0  0  0  0  0  0  0  0  0  0  0  0
    2.8579    0.0000    0.0000 C   0  0  0  0  0  0  0  0  0  0  0  0
    3.5724   -0.4125    0.0000 C   0  0  0  0  0  0  0  0  0  0  0  0
    3.5724   -1.2375    0.0000 C   0  0  0  0  0  0  0  0  0  0  0  0
    2.8579   -1.6500    0.0000 C   0  0  0  0  0  0  0  0  0  0  0  0
    2.1434   -1.2375    0.0000 C   0  0  0  0  0  0  0  0  0  0  0  0
    1.4289   -1.6500    0.0000 C   0  0  0  0  0  0  0  0  0  0  0  0
  1  2  1  0  0  0  0
  2  3  1  0  0  0  0
  3  4  1  0  0  0  0
  4  5  1  0  0  0  0
  5  6  1  0  0  0  0
  6  7  2  0  0  0  0
  7  8  1  0  0  0  0
  8  9  2  0  0  0  0
  9 10  1  0  0  0  0
 10 11  2  0  0  0  0
  6 11  1  0  0  0  0
 11 12  1  0  0  0  0
  3 12  1  0  0  0  0
M  END
>  <Catalog ID>
Z1262606546

>  <PlateID>
1198308-R-SPFL-07

>  <Well>
H03

>  <MW (desalted)>
163.216

>  <ClogP>
1.619

>  <HBD>
1

>  <TPSA>
21.260

>  <RotBonds>
1

$$$$

            

 10 11  0  0  0  0            999 V2000
    1.8414   -0.5868    0.0000 C   0  0  0  0  0  0  0  0  0  0  0  0
    1.8414   -1.4118    0.0000 C   0  0  0  0  0  0  0  0  0  0  0  0
    2.2539   -2.1263    0.0000 C   0  0  0  0  0  0  0  0  0  0  0  0
    1.4289   -2.1263    0.0000 C   0  0  0  0  0  0  0  0  0  0  0  0
    2.5559   -0.1743    0.0000 N   0  0  0  0  0  0  0  0  0  0  0  0
    2.5559    0.6507    0.0000 C   0  0  0  0  0  0  0  0  0  0  0  0
    3.2704    1.0632    0.0000 C   0  0  0  0  0  0  0  0  0  0  0  0
    3.9849    0.6507    0.0000 N   0  0  0  0  0  0  0  0  0  0  0  0
    3.9849   -0.1743    0.0000 C   0  0  0  0  0  0  0  0  0  0  0  0
    3.2704   -0.5868    0.0000 C   0  0  0  0  0  0  0  0  0  0  0  0
  1  2  1  0  0  0  0
  2  3  1  0  0  0  0
  3  4  1  0  0  0  0
  2  4  1  0  0  0  0
  1  5  1  0  0  0  0
  5  6  1  0  0  0  0
  6  7  1  0  0  0  0
  7  8  1  0  0  0  0
  8  9  1  0  0  0  0
  9 10  1  0  0  0  0
  5 10  1  0  0  0  0
M  END
>  <Catalog ID>
Z57317984

>  <PlateID>
1198308-R-SPFL-07

>  <Well>
H04

>  <MW (desalted)>
140.226

>  <ClogP>
0.565

>  <HBD>
1

>  <TPSA>
15.270

>  <RotBonds>
2

$$$$

            

 11 11  0  0  0  0            999 V2000
    0.0000    0.0000    0.0000 Cl  0  0  0  0  0  0  0  0  0  0  0  0
    1.7679   -0.3814    0.0000 F   0  0  0  0  0  0  0  0  0  0  0  0
    2.5803   -0.2381    0.0000 C   0  0  0  0  0  0  0  0  0  0  0  0
    2.8625   -1.0134    0.0000 F   0  0  0  0  0  0  0  0  0  0  0  0
    2.5803    0.5869    0.0000 C   0  0  0  0  0  0  0  0  0  0  0  0
    3.2948    0.1744    0.0000 C   0  0  0  0  0  0  0  0  0  0  0  0
    3.7073    0.8888    0.0000 C   0  0  0  0  0  0  0  0  0  0  0  0
    4.5323    0.8888    0.0000 C   0  0  0  0  0  0  0  0  0  0  0  0
    4.9448    0.1744    0.0000 N   0  0  0  0  0  0  0  0  0  0  0  0
    4.5323   -0.5401    0.0000 C   0  0  0  0  0  0  0  0  0  0  0  0
    3.7073   -0.5401    0.0000 C   0  0  0  0  0  0  0  0  0  0  0  0
  2  3  1  0  0  0  0
  3  4  1  0  0  0  0
  3  5  1  0  0  0  0
  5  6  1  0  0  0  0
  3  6  1  0  0  0  0
  6  7  1  0  0  0  0
  7  8  1  0  0  0  0
  8  9  1  0  0  0  0
  9 10  1  0  0  0  0
 10 11  1  0  0  0  0
  6 11  1  0  0  0  0
M  END
>  <Catalog ID>
Z2489675484

>  <PlateID>
1198308-R-SPFL-07

>  <Well>
H05

>  <MW (desalted)>
147.166

>  <ClogP>
0.635

>  <HBD>
1

>  <TPSA>
12.030

>  <RotBonds>
0

$$$$

            

 12 12  0  0  0  0            999 V2000
    1.4289    2.4750    0.0000 N   0  0  0  0  0  0  0  0  0  0  0  0
    0.7145    2.0625    0.0000 C   0  0  0  0  0  0  0  0  0  0  0  0
    0.7145    1.2375    0.0000 C   0  0  0  0  0  0  0  0  0  0  0  0
    1.4289    0.8250    0.0000 C   0  0  0  0  0  0  0  0  0  0  0  0
    1.4289   -0.0000    0.0000 C   0  0  0  0  0  0  0  0  0  0  0  0
    0.7145   -0.4125    0.0000 N   0  0  0  0  0  0  0  0  0  0  0  0
    0.0000    0.0000    0.0000 C   0  0  0  0  0  0  0  0  0  0  0  0
    0.0000    0.8250    0.0000 C   0  0  0  0  0  0  0  0  0  0  0  0
   -0.7145   -0.4125    0.0000 C   0  0  0  0  0  0  0  0  0  0  0  0
   -1.4289   -0.8250    0.0000 F   0  0  0  0  0  0  0  0  0  0  0  0
   -1.1270    0.3020    0.0000 F   0  0  0  0  0  0  0  0  0  0  0  0
   -0.3020   -1.1270    0.0000 F   0  0  0  0  0  0  0  0  0  0  0  0
  1  2  1  0  0  0  0
  2  3  1  0  0  0  0
  3  4  2  0  0  0  0
  4  5  1  0  0  0  0
  5  6  2  0  0  0  0
  6  7  1  0  0  0  0
  7  8  2  0  0  0  0
  3  8  1  0  0  0  0
  7  9  1  0  0  0  0
  9 10  1  0  0  0  0
  9 11  1  0  0  0  0
  9 12  1  0  0  0  0
M  END
>  <Catalog ID>
Z1198311113

>  <PlateID>
1198308-R-SPFL-07

>  <Well>
H06

>  <MW (desalted)>
176.139

>  <ClogP>
0.627

>  <HBD>
1

>  <TPSA>
38.910

>  <RotBonds>
2

$$$$

            

 11 12  0  0  0  0            999 V2000
   -0.5837   -1.4124    0.0000 N   0  0  0  0  0  0  0  0  0  0  0  0
   -0.1712   -0.6979    0.0000 C   0  0  0  0  0  0  0  0  0  0  0  0
    0.6538   -0.6979    0.0000 C   0  0  0  0  0  0  0  0  0  0  0  0
    1.1387   -0.0305    0.0000 C   0  0  0  0  0  0  0  0  0  0  0  0
    1.9233   -0.2854    0.0000 N   0  0  0  0  0  0  0  0  0  0  0  0
    2.6378    0.1271    0.0000 C   0  0  0  0  0  0  0  0  0  0  0  0
    3.3523   -0.2854    0.0000 C   0  0  0  0  0  0  0  0  0  0  0  0
    3.3523   -1.1104    0.0000 C   0  0  0  0  0  0  0  0  0  0  0  0
    2.6378   -1.5229    0.0000 C   0  0  0  0  0  0  0  0  0  0  0  0
    1.9233   -1.1104    0.0000 C   0  0  0  0  0  0  0  0  0  0  0  0
    1.1387   -1.3654    0.0000 N   0  0  0  0  0  0  0  0  0  0  0  0
  1  2  1  0  0  0  0
  2  3  1  0  0  0  0
  3  4  2  0  0  0  0
  4  5  1  0  0  0  0
  5  6  1  0  0  0  0
  6  7  1  0  0  0  0
  7  8  1  0  0  0  0
  8  9  1  0  0  0  0
  9 10  1  0  0  0  0
  5 10  1  0  0  0  0
 10 11  2  0  0  0  0
  3 11  1  0  0  0  0
M  END
>  <Catalog ID>
Z994490636

>  <PlateID>
1198308-R-SPFL-07

>  <Well>
H07

>  <MW (desalted)>
151.209

>  <ClogP>
-0.218

>  <HBD>
1

>  <TPSA>
43.840

>  <RotBonds>
1

$$$$

            

 11 12  0  0  0  0            999 V2000
    2.7845    0.6979    0.0000 F   0  0  0  0  0  0  0  0  0  0  0  0
    2.0701    1.1104    0.0000 C   0  0  0  0  0  0  0  0  0  0  0  0
    1.3556    0.6979    0.0000 C   0  0  0  0  0  0  0  0  0  0  0  0
    0.6411    1.1104    0.0000 C   0  0  0  0  0  0  0  0  0  0  0  0
   -0.1435    0.8555    0.0000 N   0  0  0  0  0  0  0  0  0  0  0  0
   -0.6284    1.5229    0.0000 C   0  0  0  0  0  0  0  0  0  0  0  0
   -0.1435    2.1904    0.0000 N   0  0  0  0  0  0  0  0  0  0  0  0
    0.6411    1.9354    0.0000 C   0  0  0  0  0  0  0  0  0  0  0  0
    1.3556    2.3479    0.0000 C   0  0  0  0  0  0  0  0  0  0  0  0
    2.0701    1.9354    0.0000 C   0  0  0  0  0  0  0  0  0  0  0  0
    2.7845    2.3479    0.0000 F   0  0  0  0  0  0  0  0  0  0  0  0
  1  2  1  0  0  0  0
  2  3  1  0  0  0  0
  3  4  2  0  0  0  0
  4  5  1  0  0  0  0
  5  6  2  0  0  0  0
  6  7  1  0  0  0  0
  7  8  1  0  0  0  0
  4  8  1  0  0  0  0
  8  9  2  0  0  0  0
  9 10  1  0  0  0  0
  2 10  2  0  0  0  0
 10 11  1  0  0  0  0
M  END
>  <Catalog ID>
Z235363161

>  <PlateID>
1198308-R-SPFL-07

>  <Well>
H08

>  <MW (desalted)>
154.117

>  <ClogP>
1.886

>  <HBD>
1

>  <TPSA>
28.680

>  <RotBonds>
0

$$$$

            

 11 12  0  0  0  0            999 V2000
   -0.0000    6.7276    0.0000 N   0  0  0  0  0  0  0  0  0  0  0  0
    0.7145    6.3151    0.0000 C   0  0  0  0  0  0  0  0  0  0  0  0
    0.7145    5.4901    0.0000 C   0  0  0  0  0  0  0  0  0  0  0  0
    1.4289    5.0776    0.0000 C   0  0  0  0  0  0  0  0  0  0  0  0
    1.4289    4.2526    0.0000 C   0  0  0  0  0  0  0  0  0  0  0  0
    0.7145    3.8401    0.0000 C   0  0  0  0  0  0  0  0  0  0  0  0
    0.0000    4.2526    0.0000 C   0  0  0  0  0  0  0  0  0  0  0  0
    0.0000    5.0776    0.0000 C   0  0  0  0  0  0  0  0  0  0  0  0
    0.7145    3.0151    0.0000 C   0  0  0  0  0  0  0  0  0  0  0  0
    1.1270    2.3007    0.0000 C   0  0  0  0  0  0  0  0  0  0  0  0
    0.3020    2.3007    0.0000 C   0  0  0  0  0  0  0  0  0  0  0  0
  1  2  1  0  0  0  0
  2  3  1  0  0  0  0
  3  4  2  0  0  0  0
  4  5  1  0  0  0  0
  5  6  2  0  0  0  0
  6  7  1  0  0  0  0
  7  8  2  0  0  0  0
  3  8  1  0  0  0  0
  6  9  1  0  0  0  0
  9 10  1  0  0  0  0
 10 11  1  0  0  0  0
  9 11  1  0  0  0  0
M  END
>  <Catalog ID>
Z992239712

>  <PlateID>
1198308-R-SPFL-07

>  <Well>
H09

>  <MW (desalted)>
147.217

>  <ClogP>
2.037

>  <HBD>
1

>  <TPSA>
26.020

>  <RotBonds>
2

$$$$

            

 12 12  0  0  0  0            999 V2000
    0.0000    0.0000    0.0000 Cl  0  0  0  0  0  0  0  0  0  0  0  0
    5.7050   -0.1814    0.0000 N   0  0  0  0  0  0  0  0  0  0  0  0
    4.8800   -0.1814    0.0000 C   0  0  0  0  0  0  0  0  0  0  0  0
    4.4675   -0.8959    0.0000 C   0  0  0  0  0  0  0  0  0  0  0  0
    3.6425   -0.8959    0.0000 C   0  0  0  0  0  0  0  0  0  0  0  0
    3.2300   -0.1814    0.0000 C   0  0  0  0  0  0  0  0  0  0  0  0
    2.5156   -0.5939    0.0000 C   0  0  0  0  0  0  0  0  0  0  0  0
    2.5156    0.2311    0.0000 C   0  0  0  0  0  0  0  0  0  0  0  0
    1.7679    0.5797    0.0000 F   0  0  0  0  0  0  0  0  0  0  0  0
    2.5875    1.0529    0.0000 F   0  0  0  0  0  0  0  0  0  0  0  0
    3.6425    0.5331    0.0000 C   0  0  0  0  0  0  0  0  0  0  0  0
    4.4675    0.5331    0.0000 C   0  0  0  0  0  0  0  0  0  0  0  0
  2  3  1  0  0  0  0
  3  4  1  0  0  0  0
  4  5  1  0  0  0  0
  5  6  1  0  0  0  0
  6  7  1  0  0  0  0
  7  8  1  0  0  0  0
  6  8  1  0  0  0  0
  8  9  1  0  0  0  0
  8 10  1  0  0  0  0
  6 11  1  0  0  0  0
 11 12  1  0  0  0  0
  3 12  1  0  0  0  0
M  END
>  <Catalog ID>
Z2489156906

>  <PlateID>
1198308-R-SPFL-07

>  <Well>
H10

>  <MW (desalted)>
161.192

>  <ClogP>
1.067

>  <HBD>
1

>  <TPSA>
26.020

>  <RotBonds>
0

$$$$

            

 12 13  0  0  0  0            999 V2000
    0.7145   -0.4125    0.0000 N   0  0  0  0  0  0  0  0  0  0  0  0
    0.7145   -1.2375    0.0000 C   0  0  0  0  0  0  0  0  0  0  0  0
    1.3819   -1.7224    0.0000 N   0  0  0  0  0  0  0  0  0  0  0  0
    1.1270   -2.5070    0.0000 N   0  0  0  0  0  0  0  0  0  0  0  0
    0.3020   -2.5070    0.0000 C   0  0  0  0  0  0  0  0  0  0  0  0
    0.0470   -1.7224    0.0000 O   0  0  0  0  0  0  0  0  0  0  0  0
   -0.1830   -3.1745    0.0000 C   0  0  0  0  0  0  0  0  0  0  0  0
    0.1526   -3.9282    0.0000 C   0  0  0  0  0  0  0  0  0  0  0  0
   -0.3323   -4.5956    0.0000 C   0  0  0  0  0  0  0  0  0  0  0  0
   -1.1528   -4.5094    0.0000 C   0  0  0  0  0  0  0  0  0  0  0  0
   -1.4884   -3.7557    0.0000 C   0  0  0  0  0  0  0  0  0  0  0  0
   -1.0034   -3.0882    0.0000 C   0  0  0  0  0  0  0  0  0  0  0  0
  1  2  1  0  0  0  0
  2  3  2  0  0  0  0
  3  4  1  0  0  0  0
  4  5  2  0  0  0  0
  5  6  1  0  0  0  0
  2  6  1  0  0  0  0
  5  7  1  0  0  0  0
  7  8  2  0  0  0  0
  8  9  1  0  0  0  0
  9 10  2  0  0  0  0
 10 11  1  0  0  0  0
 11 12  2  0  0  0  0
  7 12  1  0  0  0  0
M  END
>  <Catalog ID>
Z56788716

>  <PlateID>
1198308-R-SPFL-07

>  <Well>
H11

>  <MW (desalted)>
161.161

>  <ClogP>
0.815

>  <HBD>
1

>  <TPSA>
64.940

>  <RotBonds>
1

$$$$

            

 12 13  0  0  0  0            999 V2000
    0.7145   -0.4125    0.0000 N   0  0  0  0  0  0  0  0  0  0  0  0
    0.7145   -1.2375    0.0000 C   0  0  0  0  0  0  0  0  0  0  0  0
    1.3819   -1.7224    0.0000 N   0  0  0  0  0  0  0  0  0  0  0  0
    1.1270   -2.5070    0.0000 N   0  0  0  0  0  0  0  0  0  0  0  0
    0.3020   -2.5070    0.0000 C   0  0  0  0  0  0  0  0  0  0  0  0
    0.0470   -1.7224    0.0000 S   0  0  0  0  0  0  0  0  0  0  0  0
   -0.1830   -3.1745    0.0000 C   0  0  0  0  0  0  0  0  0  0  0  0
    0.1526   -3.9282    0.0000 C   0  0  0  0  0  0  0  0  0  0  0  0
   -0.3323   -4.5956    0.0000 C   0  0  0  0  0  0  0  0  0  0  0  0
   -1.1528   -4.5094    0.0000 C   0  0  0  0  0  0  0  0  0  0  0  0
   -1.4884   -3.7557    0.0000 C   0  0  0  0  0  0  0  0  0  0  0  0
   -1.0034   -3.0882    0.0000 C   0  0  0  0  0  0  0  0  0  0  0  0
  1  2  1  0  0  0  0
  2  3  2  0  0  0  0
  3  4  1  0  0  0  0
  4  5  2  0  0  0  0
  5  6  1  0  0  0  0
  2  6  1  0  0  0  0
  5  7  1  0  0  0  0
  7  8  2  0  0  0  0
  8  9  1  0  0  0  0
  9 10  2  0  0  0  0
 10 11  1  0  0  0  0
 11 12  2  0  0  0  0
  7 12  1  0  0  0  0
M  END
>  <Catalog ID>
Z57148448

>  <PlateID>
1198308-R-SPFL-08

>  <Well>
A02

>  <MW (desalted)>
177.226

>  <ClogP>
1.642

>  <HBD>
1

>  <TPSA>
51.800

>  <RotBonds>
1

$$$$

            

 12 13  0  0  0  0            999 V2000
    0.0000   -1.6500    0.0000 C   0  0  0  0  0  0  0  0  0  0  0  0
    0.7145   -1.2375    0.0000 C   0  0  0  0  0  0  0  0  0  0  0  0
    0.7145   -0.4125    0.0000 N   0  0  0  0  0  0  0  0  0  0  0  0
    1.4289    0.0000    0.0000 N   0  0  0  0  0  0  0  0  0  0  0  0
    2.1434   -0.4125    0.0000 C   0  0  0  0  0  0  0  0  0  0  0  0
    2.8579    0.0000    0.0000 C   0  0  0  0  0  0  0  0  0  0  0  0
    3.5724   -0.4125    0.0000 C   0  0  0  0  0  0  0  0  0  0  0  0
    3.5724   -1.2375    0.0000 C   0  0  0  0  0  0  0  0  0  0  0  0
    2.8579   -1.6500    0.0000 C   0  0  0  0  0  0  0  0  0  0  0  0
    2.1434   -1.2375    0.0000 N   0  0  0  0  0  0  0  0  0  0  0  0
    1.4289   -1.6500    0.0000 C   0  0  0  0  0  0  0  0  0  0  0  0
    1.4289   -2.4750    0.0000 O   0  0  0  0  0  0  0  0  0  0  0  0
  1  2  1  0  0  0  0
  2  3  2  0  0  0  0
  3  4  1  0  0  0  0
  4  5  2  0  0  0  0
  5  6  1  0  0  0  0
  6  7  2  0  0  0  0
  7  8  1  0  0  0  0
  8  9  2  0  0  0  0
  9 10  1  0  0  0  0
  5 10  1  0  0  0  0
 10 11  1  0  0  0  0
  2 11  1  0  0  0  0
 11 12  2  0  0  0  0
M  END
>  <Catalog ID>
Z308869916

>  <PlateID>
1198308-R-SPFL-08

>  <Well>
A03

>  <MW (desalted)>
161.161

>  <ClogP>
-0.156

>  <HBD>
0

>  <TPSA>
45.030

>  <RotBonds>
0

$$$$

            

 14 15  0  0  0  0            999 V2000
    1.4289   -1.6500    0.0000 N   0  0  0  0  0  0  0  0  0  0  0  0
    1.4289   -2.4750    0.0000 C   0  0  0  0  0  0  0  0  0  0  0  0
    2.0964   -2.9599    0.0000 N   0  0  0  0  0  0  0  0  0  0  0  0
    1.8414   -3.7445    0.0000 N   0  0  0  0  0  0  0  0  0  0  0  0
    1.0164   -3.7445    0.0000 C   0  0  0  0  0  0  0  0  0  0  0  0
    0.5315   -4.4120    0.0000 C   0  0  0  0  0  0  0  0  0  0  0  0
    0.8671   -5.1657    0.0000 C   0  0  0  0  0  0  0  0  0  0  0  0
    0.3822   -5.8331    0.0000 C   0  0  0  0  0  0  0  0  0  0  0  0
    0.7177   -6.5868    0.0000 C   0  0  0  0  0  0  0  0  0  0  0  0
    0.2328   -7.2542    0.0000 C   0  0  0  0  0  0  0  0  0  0  0  0
   -0.5877   -7.1680    0.0000 C   0  0  0  0  0  0  0  0  0  0  0  0
   -0.9232   -6.4143    0.0000 C   0  0  0  0  0  0  0  0  0  0  0  0
   -0.4383   -5.7469    0.0000 C   0  0  0  0  0  0  0  0  0  0  0  0
    0.7615   -2.9599    0.0000 O   0  0  0  0  0  0  0  0  0  0  0  0
  1  2  1  0  0  0  0
  2  3  2  0  0  0  0
  3  4  1  0  0  0  0
  4  5  2  0  0  0  0
  5  6  1  0  0  0  0
  6  7  1  0  0  0  0
  7  8  1  0  0  0  0
  8  9  2  0  0  0  0
  9 10  1  0  0  0  0
 10 11  2  0  0  0  0
 11 12  1  0  0  0  0
 12 13  2  0  0  0  0
  8 13  1  0  0  0  0
  5 14  1  0  0  0  0
  2 14  1  0  0  0  0
M  END
>  <Catalog ID>
Z285233912

>  <PlateID>
1198308-R-SPFL-08

>  <Well>
A04

>  <MW (desalted)>
189.214

>  <ClogP>
0.933

>  <HBD>
1

>  <TPSA>
64.940

>  <RotBonds>
3

$$$$

            

 14 15  0  0  0  0            999 V2000
    1.4289   -0.0000    0.0000 O   0  0  0  0  0  0  0  0  0  0  0  0
    0.7145   -0.4125    0.0000 C   0  0  0  0  0  0  0  0  0  0  0  0
    0.0000    0.0000    0.0000 O   0  0  0  0  0  0  0  0  0  0  0  0
    0.7145   -1.2375    0.0000 C   0  0  0  0  0  0  0  0  0  0  0  0
    1.3819   -1.7224    0.0000 C   0  0  0  0  0  0  0  0  0  0  0  0
    1.1270   -2.5070    0.0000 C   0  0  0  0  0  0  0  0  0  0  0  0
    0.3020   -2.5070    0.0000 N   0  0  0  0  0  0  0  0  0  0  0  0
    0.0470   -1.7224    0.0000 N   0  0  0  0  0  0  0  0  0  0  0  0
   -0.7376   -1.4675    0.0000 C   0  0  0  0  0  0  0  0  0  0  0  0
   -1.3507   -2.0195    0.0000 C   0  0  0  0  0  0  0  0  0  0  0  0
   -2.1353   -1.7646    0.0000 C   0  0  0  0  0  0  0  0  0  0  0  0
   -2.3068   -0.9576    0.0000 C   0  0  0  0  0  0  0  0  0  0  0  0
   -1.6937   -0.4056    0.0000 C   0  0  0  0  0  0  0  0  0  0  0  0
   -0.9091   -0.6605    0.0000 C   0  0  0  0  0  0  0  0  0  0  0  0
  1  2  1  0  0  0  0
  2  3  2  0  0  0  0
  2  4  1  0  0  0  0
  4  5  2  0  0  0  0
  5  6  1  0  0  0  0
  6  7  2  0  0  0  0
  7  8  1  0  0  0  0
  4  8  1  0  0  0  0
  8  9  1  0  0  0  0
  9 10  2  0  0  0  0
 10 11  1  0  0  0  0
 11 12  2  0  0  0  0
 12 13  1  0  0  0  0
 13 14  2  0  0  0  0
  9 14  1  0  0  0  0
M  END
>  <Catalog ID>
Z1201620214

>  <PlateID>
1198308-R-SPFL-08

>  <Well>
A05

>  <MW (desalted)>
188.183

>  <ClogP>
2.200

>  <HBD>
1

>  <TPSA>
55.120

>  <RotBonds>
2

$$$$

            

 14 14  0  0  0  0            999 V2000
   -0.7145    3.7125    0.0000 C   0  0  0  0  0  0  0  0  0  0  0  0
    0.0000    3.3000    0.0000 C   0  0  0  0  0  0  0  0  0  0  0  0
    0.0000    2.4750    0.0000 N   0  0  0  0  0  0  0  0  0  0  0  0
   -0.7145    2.0625    0.0000 C   0  0  0  0  0  0  0  0  0  0  0  0
   -0.7145    1.2375    0.0000 C   0  0  0  0  0  0  0  0  0  0  0  0
    0.7145    2.0625    0.0000 C   0  0  0  0  0  0  0  0  0  0  0  0
    1.4289    2.4750    0.0000 O   0  0  0  0  0  0  0  0  0  0  0  0
    0.7145    1.2375    0.0000 C   0  0  0  0  0  0  0  0  0  0  0  0
    1.4289    0.8250    0.0000 C   0  0  0  0  0  0  0  0  0  0  0  0
    1.4289   -0.0000    0.0000 C   0  0  0  0  0  0  0  0  0  0  0  0
    0.7145   -0.4125    0.0000 N   0  0  0  0  0  0  0  0  0  0  0  0
    0.0000    0.0000    0.0000 C   0  0  0  0  0  0  0  0  0  0  0  0
   -0.7145   -0.4125    0.0000 C   0  0  0  0  0  0  0  0  0  0  0  0
    0.0000    0.8250    0.0000 N   0  0  0  0  0  0  0  0  0  0  0  0
  1  2  1  0  0  0  0
  2  3  1  0  0  0  0
  3  4  1  0  0  0  0
  4  5  1  0  0  0  0
  3  6  1  0  0  0  0
  6  7  2  0  0  0  0
  6  8  1  0  0  0  0
  8  9  2  0  0  0  0
  9 10  1  0  0  0  0
 10 11  2  0  0  0  0
 11 12  1  0  0  0  0
 12 13  1  0  0  0  0
 12 14  2  0  0  0  0
  8 14  1  0  0  0  0
M  END
>  <Catalog ID>
Z729024430

>  <PlateID>
1198308-R-SPFL-08

>  <Well>
A06

>  <MW (desalted)>
193.246

>  <ClogP>
0.108

>  <HBD>
0

>  <TPSA>
46.090

>  <RotBonds>
3

$$$$

            

 13 14  0  0  0  0            999 V2000
   -0.9962   -0.6979    0.0000 N   0  0  0  0  0  0  0  0  0  0  0  0
   -0.1712   -0.6979    0.0000 S   0  0  0  0  0  0  0  0  0  0  0  0
   -0.1712   -1.5229    0.0000 O   0  0  0  0  0  0  0  0  0  0  0  0
   -0.1712    0.1271    0.0000 O   0  0  0  0  0  0  0  0  0  0  0  0
    0.6538   -0.6979    0.0000 C   0  0  0  0  0  0  0  0  0  0  0  0
    1.1387   -0.0305    0.0000 C   0  0  0  0  0  0  0  0  0  0  0  0
    1.9233   -0.2854    0.0000 C   0  0  0  0  0  0  0  0  0  0  0  0
    2.6378    0.1271    0.0000 C   0  0  0  0  0  0  0  0  0  0  0  0
    3.3523   -0.2854    0.0000 C   0  0  0  0  0  0  0  0  0  0  0  0
    3.3523   -1.1104    0.0000 C   0  0  0  0  0  0  0  0  0  0  0  0
    2.6378   -1.5229    0.0000 C   0  0  0  0  0  0  0  0  0  0  0  0
    1.9233   -1.1104    0.0000 C   0  0  0  0  0  0  0  0  0  0  0  0
    1.1387   -1.3654    0.0000 O   0  0  0  0  0  0  0  0  0  0  0  0
  1  2  1  0  0  0  0
  2  3  2  0  0  0  0
  2  4  2  0  0  0  0
  2  5  1  0  0  0  0
  5  6  2  0  0  0  0
  6  7  1  0  0  0  0
  7  8  2  0  0  0  0
  8  9  1  0  0  0  0
  9 10  2  0  0  0  0
 10 11  1  0  0  0  0
 11 12  2  0  0  0  0
  7 12  1  0  0  0  0
 12 13  1  0  0  0  0
  5 13  1  0  0  0  0
M  END
>  <Catalog ID>
Z1378432729

>  <PlateID>
1198308-R-SPFL-08

>  <Well>
A07

>  <MW (desalted)>
197.211

>  <ClogP>
0.865

>  <HBD>
1

>  <TPSA>
73.300

>  <RotBonds>
1

$$$$

            

 14 15  0  0  0  0            999 V2000
    1.4289   -0.0000    0.0000 O   0  0  0  0  0  0  0  0  0  0  0  0
    0.7145   -0.4125    0.0000 C   0  0  0  0  0  0  0  0  0  0  0  0
    0.0000    0.0000    0.0000 O   0  0  0  0  0  0  0  0  0  0  0  0
    0.7145   -1.2375    0.0000 C   0  0  0  0  0  0  0  0  0  0  0  0
    1.3819   -1.7224    0.0000 C   0  0  0  0  0  0  0  0  0  0  0  0
    1.1270   -2.5070    0.0000 N   0  0  0  0  0  0  0  0  0  0  0  0
    0.3020   -2.5070    0.0000 O   0  0  0  0  0  0  0  0  0  0  0  0
    0.0470   -1.7224    0.0000 C   0  0  0  0  0  0  0  0  0  0  0  0
   -0.7376   -1.4675    0.0000 C   0  0  0  0  0  0  0  0  0  0  0  0
   -1.3507   -2.0195    0.0000 C   0  0  0  0  0  0  0  0  0  0  0  0
   -2.1353   -1.7646    0.0000 C   0  0  0  0  0  0  0  0  0  0  0  0
   -2.3068   -0.9576    0.0000 C   0  0  0  0  0  0  0  0  0  0  0  0
   -1.6937   -0.4056    0.0000 C   0  0  0  0  0  0  0  0  0  0  0  0
   -0.9091   -0.6605    0.0000 C   0  0  0  0  0  0  0  0  0  0  0  0
  1  2  1  0  0  0  0
  2  3  2  0  0  0  0
  2  4  1  0  0  0  0
  4  5  1  0  0  0  0
  5  6  2  0  0  0  0
  6  7  1  0  0  0  0
  7  8  1  0  0  0  0
  4  8  2  0  0  0  0
  8  9  1  0  0  0  0
  9 10  2  0  0  0  0
 10 11  1  0  0  0  0
 11 12  2  0  0  0  0
 12 13  1  0  0  0  0
 13 14  2  0  0  0  0
  9 14  1  0  0  0  0
M  END
>  <Catalog ID>
Z808584790

>  <PlateID>
1198308-R-SPFL-08

>  <Well>
A08

>  <MW (desalted)>
189.167

>  <ClogP>
1.645

>  <HBD>
1

>  <TPSA>
63.330

>  <RotBonds>
2

$$$$

            

 14 15  0  0  0  0            999 V2000
    1.9709    1.0573    0.0000 C   0  0  0  0  0  0  0  0  0  0  0  0
    1.9709    0.2323    0.0000 C   0  0  0  0  0  0  0  0  0  0  0  0
    2.6854   -0.1802    0.0000 C   0  0  0  0  0  0  0  0  0  0  0  0
    1.2564   -0.1802    0.0000 C   0  0  0  0  0  0  0  0  0  0  0  0
    1.2564   -1.0052    0.0000 N   0  0  0  0  0  0  0  0  0  0  0  0
    1.9239   -1.4901    0.0000 C   0  0  0  0  0  0  0  0  0  0  0  0
    1.6689   -2.2748    0.0000 N   0  0  0  0  0  0  0  0  0  0  0  0
    0.8439   -2.2748    0.0000 N   0  0  0  0  0  0  0  0  0  0  0  0
    0.5890   -1.4901    0.0000 C   0  0  0  0  0  0  0  0  0  0  0  0
   -0.1956   -1.2352    0.0000 C   0  0  0  0  0  0  0  0  0  0  0  0
   -0.8631   -1.7201    0.0000 C   0  0  0  0  0  0  0  0  0  0  0  0
   -1.5305   -1.2352    0.0000 C   0  0  0  0  0  0  0  0  0  0  0  0
   -1.2756   -0.4506    0.0000 C   0  0  0  0  0  0  0  0  0  0  0  0
   -0.4506   -0.4506    0.0000 N   0  0  0  0  0  0  0  0  0  0  0  0
  1  2  1  0  0  0  0
  2  3  1  0  0  0  0
  2  4  1  0  0  0  0
  4  5  1  0  0  0  0
  5  6  1  0  0  0  0
  6  7  2  0  0  0  0
  7  8  1  0  0  0  0
  8  9  2  0  0  0  0
  5  9  1  0  0  0  0
  9 10  1  0  0  0  0
 10 11  1  0  0  0  0
 11 12  1  0  0  0  0
 12 13  1  0  0  0  0
 13 14  1  0  0  0  0
 10 14  1  0  0  0  0
M  END
>  <Catalog ID>
Z995128628

>  <PlateID>
1198308-R-SPFL-08

>  <Well>
A09

>  <MW (desalted)>
194.277

>  <ClogP>
0.168

>  <HBD>
1

>  <TPSA>
42.740

>  <RotBonds>
3

$$$$

            

 15 16  0  0  0  0            999 V2000
    0.0768   -2.3215    0.0000 C   0  0  0  0  0  0  0  0  0  0  0  0
    0.8838   -2.1500    0.0000 C   0  0  0  0  0  0  0  0  0  0  0  0
    1.4358   -2.7631    0.0000 C   0  0  0  0  0  0  0  0  0  0  0  0
    1.1387   -1.3654    0.0000 N   0  0  0  0  0  0  0  0  0  0  0  0
    0.6538   -0.6979    0.0000 C   0  0  0  0  0  0  0  0  0  0  0  0
    1.1387   -0.0305    0.0000 N   0  0  0  0  0  0  0  0  0  0  0  0
    1.9233   -0.2854    0.0000 C   0  0  0  0  0  0  0  0  0  0  0  0
    2.6378    0.1271    0.0000 C   0  0  0  0  0  0  0  0  0  0  0  0
    3.3523   -0.2854    0.0000 C   0  0  0  0  0  0  0  0  0  0  0  0
    3.3523   -1.1104    0.0000 C   0  0  0  0  0  0  0  0  0  0  0  0
    2.6378   -1.5229    0.0000 C   0  0  0  0  0  0  0  0  0  0  0  0
    1.9233   -1.1104    0.0000 C   0  0  0  0  0  0  0  0  0  0  0  0
    4.0668    0.1271    0.0000 C   0  0  0  0  0  0  0  0  0  0  0  0
    4.0668    0.9521    0.0000 O   0  0  0  0  0  0  0  0  0  0  0  0
    4.7812   -0.2854    0.0000 O   0  0  0  0  0  0  0  0  0  0  0  0
  1  2  1  0  0  0  0
  2  3  1  0  0  0  0
  2  4  1  0  0  0  0
  4  5  1  0  0  0  0
  5  6  2  0  0  0  0
  6  7  1  0  0  0  0
  7  8  2  0  0  0  0
  8  9  1  0  0  0  0
  9 10  2  0  0  0  0
 10 11  1  0  0  0  0
 11 12  2  0  0  0  0
  4 12  1  0  0  0  0
  7 12  1  0  0  0  0
  9 13  1  0  0  0  0
 13 14  2  0  0  0  0
 13 15  1  0  0  0  0
M  END
>  <Catalog ID>
Z431983770

>  <PlateID>
1198308-R-SPFL-08

>  <Well>
A10

>  <MW (desalted)>
204.225

>  <ClogP>
2.437

>  <HBD>
1

>  <TPSA>
55.120

>  <RotBonds>
2

$$$$

            

 13 13  0  0  0  0            999 V2000
    0.0000    0.0000    0.0000 Cl  0  0  0  0  0  0  0  0  0  0  0  0
    4.5600    2.3509    0.0000 C   0  0  0  0  0  0  0  0  0  0  0  0
    4.5600    1.5259    0.0000 C   0  0  0  0  0  0  0  0  0  0  0  0
    5.2274    1.0409    0.0000 N   0  0  0  0  0  0  0  0  0  0  0  0
    4.9725    0.2563    0.0000 O   0  0  0  0  0  0  0  0  0  0  0  0
    4.1475    0.2563    0.0000 C   0  0  0  0  0  0  0  0  0  0  0  0
    3.8925    1.0409    0.0000 N   0  0  0  0  0  0  0  0  0  0  0  0
    3.6625   -0.4111    0.0000 C   0  0  0  0  0  0  0  0  0  0  0  0
    3.9981   -1.1648    0.0000 C   0  0  0  0  0  0  0  0  0  0  0  0
    3.5132   -1.8322    0.0000 C   0  0  0  0  0  0  0  0  0  0  0  0
    2.6927   -1.7460    0.0000 C   0  0  0  0  0  0  0  0  0  0  0  0
    2.3571   -0.9923    0.0000 C   0  0  0  0  0  0  0  0  0  0  0  0
    2.8421   -0.3249    0.0000 N   0  0  0  0  0  0  0  0  0  0  0  0
  2  3  1  0  0  0  0
  3  4  2  0  0  0  0
  4  5  1  0  0  0  0
  5  6  1  0  0  0  0
  6  7  2  0  0  0  0
  3  7  1  0  0  0  0
  6  8  1  0  0  0  0
  8  9  1  0  0  0  0
  9 10  1  0  0  0  0
 10 11  1  0  0  0  0
 11 12  1  0  0  0  0
 12 13  1  0  0  0  0
  8 13  1  0  0  0  0
M  END
>  <Catalog ID>
Z1496024594

>  <PlateID>
1198308-R-SPFL-08

>  <Well>
A11

>  <MW (desalted)>
167.208

>  <ClogP>
0.114

>  <HBD>
1

>  <TPSA>
50.950

>  <RotBonds>
1

$$$$

            

 10 10  0  0  0  0            999 V2000
    0.0000    2.4750    0.0000 N   0  0  0  0  0  0  0  0  0  0  0  0
    0.7145    2.0625    0.0000 C   0  0  0  0  0  0  0  0  0  0  0  0
    1.4289    2.4750    0.0000 O   0  0  0  0  0  0  0  0  0  0  0  0
    0.7145    1.2375    0.0000 C   0  0  0  0  0  0  0  0  0  0  0  0
    1.4289    0.8250    0.0000 C   0  0  0  0  0  0  0  0  0  0  0  0
    1.4289   -0.0000    0.0000 C   0  0  0  0  0  0  0  0  0  0  0  0
    0.7145   -0.4125    0.0000 C   0  0  0  0  0  0  0  0  0  0  0  0
    0.0000    0.0000    0.0000 C   0  0  0  0  0  0  0  0  0  0  0  0
   -0.7145   -0.4125    0.0000 Cl  0  0  0  0  0  0  0  0  0  0  0  0
    0.0000    0.8250    0.0000 C   0  0  0  0  0  0  0  0  0  0  0  0
  1  2  1  0  0  0  0
  2  3  2  0  0  0  0
  2  4  1  0  0  0  0
  4  5  2  0  0  0  0
  5  6  1  0  0  0  0
  6  7  2  0  0  0  0
  7  8  1  0  0  0  0
  8  9  1  0  0  0  0
  8 10  2  0  0  0  0
  4 10  1  0  0  0  0
M  END
>  <Catalog ID>
Z33546479

>  <PlateID>
1198308-R-SPFL-08

>  <Well>
B02

>  <MW (desalted)>
155.582

>  <ClogP>
1.536

>  <HBD>
1

>  <TPSA>
43.090

>  <RotBonds>
1

$$$$

            

 16 17  0  0  0  0            999 V2000
    1.4289   -1.6500    0.0000 F   0  0  0  0  0  0  0  0  0  0  0  0
    1.4289   -2.4750    0.0000 C   0  0  0  0  0  0  0  0  0  0  0  0
    2.1434   -2.8875    0.0000 C   0  0  0  0  0  0  0  0  0  0  0  0
    2.1434   -3.7125    0.0000 C   0  0  0  0  0  0  0  0  0  0  0  0
    1.4289   -4.1250    0.0000 C   0  0  0  0  0  0  0  0  0  0  0  0
    0.7145   -3.7125    0.0000 C   0  0  0  0  0  0  0  0  0  0  0  0
    0.0000   -4.1250    0.0000 N   0  0  0  0  0  0  0  0  0  0  0  0
    0.0000   -4.9500    0.0000 C   0  0  0  0  0  0  0  0  0  0  0  0
    0.7145   -5.3625    0.0000 O   0  0  0  0  0  0  0  0  0  0  0  0
   -0.7145   -5.3625    0.0000 C   0  0  0  0  0  0  0  0  0  0  0  0
   -0.7145   -6.1875    0.0000 C   0  0  0  0  0  0  0  0  0  0  0  0
   -1.4289   -6.6000    0.0000 N   0  0  0  0  0  0  0  0  0  0  0  0
   -2.1434   -6.1875    0.0000 C   0  0  0  0  0  0  0  0  0  0  0  0
   -2.1434   -5.3625    0.0000 C   0  0  0  0  0  0  0  0  0  0  0  0
   -1.4289   -4.9500    0.0000 N   0  0  0  0  0  0  0  0  0  0  0  0
    0.7145   -2.8875    0.0000 C   0  0  0  0  0  0  0  0  0  0  0  0
  1  2  1  0  0  0  0
  2  3  2  0  0  0  0
  3  4  1  0  0  0  0
  4  5  2  0  0  0  0
  5  6  1  0  0  0  0
  6  7  1  0  0  0  0
  7  8  1  0  0  0  0
  8  9  2  0  0  0  0
  8 10  1  0  0  0  0
 10 11  2  0  0  0  0
 11 12  1  0  0  0  0
 12 13  2  0  0  0  0
 13 14  1  0  0  0  0
 14 15  2  0  0  0  0
 10 15  1  0  0  0  0
  6 16  2  0  0  0  0
  2 16  1  0  0  0  0
M  END
>  <Catalog ID>
Z28143241

>  <PlateID>
1198308-R-SPFL-08

>  <Well>
B03

>  <MW (desalted)>
217.199

>  <ClogP>
1.639

>  <HBD>
1

>  <TPSA>
54.880

>  <RotBonds>
2

$$$$

            

 13 14  0  0  0  0            999 V2000
    1.0146   -1.7070    0.0000 C   0  0  0  0  0  0  0  0  0  0  0  0
    1.2695   -0.9224    0.0000 C   0  0  0  0  0  0  0  0  0  0  0  0
    0.7846   -0.2549    0.0000 N   0  0  0  0  0  0  0  0  0  0  0  0
    1.2695    0.4125    0.0000 N   0  0  0  0  0  0  0  0  0  0  0  0
    1.0146    1.1971    0.0000 C   0  0  0  0  0  0  0  0  0  0  0  0
    2.0542    0.1576    0.0000 C   0  0  0  0  0  0  0  0  0  0  0  0
    2.8388    0.4125    0.0000 S   0  0  0  0  0  0  0  0  0  0  0  0
    3.3237   -0.2549    0.0000 C   0  0  0  0  0  0  0  0  0  0  0  0
    2.8388   -0.9224    0.0000 C   0  0  0  0  0  0  0  0  0  0  0  0
    2.0542   -0.6674    0.0000 C   0  0  0  0  0  0  0  0  0  0  0  0
    4.1487   -0.2549    0.0000 C   0  0  0  0  0  0  0  0  0  0  0  0
    4.5612    0.4595    0.0000 O   0  0  0  0  0  0  0  0  0  0  0  0
    4.5612   -0.9694    0.0000 N   0  0  0  0  0  0  0  0  0  0  0  0
  1  2  1  0  0  0  0
  2  3  2  0  0  0  0
  3  4  1  0  0  0  0
  4  5  1  0  0  0  0
  4  6  1  0  0  0  0
  6  7  1  0  0  0  0
  7  8  1  0  0  0  0
  8  9  2  0  0  0  0
  9 10  1  0  0  0  0
  2 10  1  0  0  0  0
  6 10  2  0  0  0  0
  8 11  1  0  0  0  0
 11 12  2  0  0  0  0
 11 13  1  0  0  0  0
M  END
>  <Catalog ID>
Z229615464

>  <PlateID>
1198308-R-SPFL-08

>  <Well>
B04

>  <MW (desalted)>
195.242

>  <ClogP>
0.605

>  <HBD>
1

>  <TPSA>
60.910

>  <RotBonds>
1

$$$$

            

 15 16  0  0  0  0            999 V2000
   -0.7145   -3.7125    0.0000 O   0  0  0  0  0  0  0  0  0  0  0  0
   -0.7145   -2.8875    0.0000 C   0  0  0  0  0  0  0  0  0  0  0  0
   -1.4289   -2.4750    0.0000 O   0  0  0  0  0  0  0  0  0  0  0  0
    0.0000   -2.4750    0.0000 C   0  0  0  0  0  0  0  0  0  0  0  0
    0.0000   -1.6500    0.0000 C   0  0  0  0  0  0  0  0  0  0  0  0
    0.7145   -1.2375    0.0000 C   0  0  0  0  0  0  0  0  0  0  0  0
    0.7145   -0.4125    0.0000 C   0  0  0  0  0  0  0  0  0  0  0  0
    1.4289    0.0000    0.0000 N   0  0  0  0  0  0  0  0  0  0  0  0
    2.1434   -0.4125    0.0000 C   0  0  0  0  0  0  0  0  0  0  0  0
    2.8579    0.0000    0.0000 C   0  0  0  0  0  0  0  0  0  0  0  0
    3.5724   -0.4125    0.0000 C   0  0  0  0  0  0  0  0  0  0  0  0
    3.5724   -1.2375    0.0000 C   0  0  0  0  0  0  0  0  0  0  0  0
    2.8579   -1.6500    0.0000 C   0  0  0  0  0  0  0  0  0  0  0  0
    2.1434   -1.2375    0.0000 C   0  0  0  0  0  0  0  0  0  0  0  0
    1.4289   -1.6500    0.0000 C   0  0  0  0  0  0  0  0  0  0  0  0
  1  2  1  0  0  0  0
  2  3  2  0  0  0  0
  2  4  1  0  0  0  0
  4  5  1  0  0  0  0
  5  6  1  0  0  0  0
  6  7  1  0  0  0  0
  7  8  2  0  0  0  0
  8  9  1  0  0  0  0
  9 10  2  0  0  0  0
 10 11  1  0  0  0  0
 11 12  2  0  0  0  0
 12 13  1  0  0  0  0
 13 14  2  0  0  0  0
  9 14  1  0  0  0  0
 14 15  1  0  0  0  0
  6 15  2  0  0  0  0
M  END
>  <Catalog ID>
Z1272682544

>  <PlateID>
1198308-R-SPFL-08

>  <Well>
B05

>  <MW (desalted)>
201.221

>  <ClogP>
1.790

>  <HBD>
1

>  <TPSA>
50.190

>  <RotBonds>
3

$$$$

            

 15 16  0  0  0  0            999 V2000
   -0.9851   -3.2777    0.0000 C   0  0  0  0  0  0  0  0  0  0  0  0
   -0.1781   -3.1062    0.0000 C   0  0  0  0  0  0  0  0  0  0  0  0
    0.3739   -3.7192    0.0000 C   0  0  0  0  0  0  0  0  0  0  0  0
    0.0768   -2.3215    0.0000 N   0  0  0  0  0  0  0  0  0  0  0  0
    0.8838   -2.1500    0.0000 C   0  0  0  0  0  0  0  0  0  0  0  0
    1.4358   -2.7631    0.0000 O   0  0  0  0  0  0  0  0  0  0  0  0
    1.1387   -1.3654    0.0000 C   0  0  0  0  0  0  0  0  0  0  0  0
    0.6538   -0.6979    0.0000 C   0  0  0  0  0  0  0  0  0  0  0  0
    1.1387   -0.0305    0.0000 N   0  0  0  0  0  0  0  0  0  0  0  0
    1.9233   -0.2854    0.0000 N   0  0  0  0  0  0  0  0  0  0  0  0
    2.6378    0.1271    0.0000 C   0  0  0  0  0  0  0  0  0  0  0  0
    3.3523   -0.2854    0.0000 C   0  0  0  0  0  0  0  0  0  0  0  0
    3.3523   -1.1104    0.0000 C   0  0  0  0  0  0  0  0  0  0  0  0
    2.6378   -1.5229    0.0000 N   0  0  0  0  0  0  0  0  0  0  0  0
    1.9233   -1.1104    0.0000 C   0  0  0  0  0  0  0  0  0  0  0  0
  1  2  1  0  0  0  0
  2  3  1  0  0  0  0
  2  4  1  0  0  0  0
  4  5  1  0  0  0  0
  5  6  2  0  0  0  0
  5  7  1  0  0  0  0
  7  8  1  0  0  0  0
  8  9  2  0  0  0  0
  9 10  1  0  0  0  0
 10 11  1  0  0  0  0
 11 12  2  0  0  0  0
 12 13  1  0  0  0  0
 13 14  2  0  0  0  0
 14 15  1  0  0  0  0
  7 15  2  0  0  0  0
 10 15  1  0  0  0  0
M  END
>  <Catalog ID>
Z295892696

>  <PlateID>
1198308-R-SPFL-08

>  <Well>
B06

>  <MW (desalted)>
204.228

>  <ClogP>
0.514

>  <HBD>
1

>  <TPSA>
59.290

>  <RotBonds>
2

$$$$

            

 12 13  0  0  0  0            999 V2000
    2.5645    2.4750    0.0000 O   0  0  0  0  0  0  0  0  0  0  0  0
    3.2789    2.0625    0.0000 C   0  0  0  0  0  0  0  0  0  0  0  0
    3.9934    2.4750    0.0000 O   0  0  0  0  0  0  0  0  0  0  0  0
    3.2789    1.2375    0.0000 C   0  0  0  0  0  0  0  0  0  0  0  0
    3.9934    0.8250    0.0000 C   0  0  0  0  0  0  0  0  0  0  0  0
    3.9934    0.0000    0.0000 C   0  0  0  0  0  0  0  0  0  0  0  0
    3.2789   -0.4125    0.0000 C   0  0  0  0  0  0  0  0  0  0  0  0
    2.5645    0.0000    0.0000 C   0  0  0  0  0  0  0  0  0  0  0  0
    1.7798   -0.2549    0.0000 S   0  0  0  0  0  0  0  0  0  0  0  0
    1.2949    0.4125    0.0000 C   0  0  0  0  0  0  0  0  0  0  0  0
    1.7798    1.0799    0.0000 N   0  0  0  0  0  0  0  0  0  0  0  0
    2.5645    0.8250    0.0000 C   0  0  0  0  0  0  0  0  0  0  0  0
  1  2  1  0  0  0  0
  2  3  2  0  0  0  0
  2  4  1  0  0  0  0
  4  5  1  0  0  0  0
  5  6  2  0  0  0  0
  6  7  1  0  0  0  0
  7  8  2  0  0  0  0
  8  9  1  0  0  0  0
  9 10  1  0  0  0  0
 10 11  2  0  0  0  0
 11 12  1  0  0  0  0
  4 12  2  0  0  0  0
  8 12  1  0  0  0  0
M  END
>  <Catalog ID>
Z1278927723

>  <PlateID>
1198308-R-SPFL-08

>  <Well>
B07

>  <MW (desalted)>
179.196

>  <ClogP>
2.114

>  <HBD>
1

>  <TPSA>
50.190

>  <RotBonds>
1

$$$$

            

 12 13  0  0  0  0            999 V2000
    0.7145   -0.4125    0.0000 N   0  0  0  0  0  0  0  0  0  0  0  0
    0.7145   -1.2375    0.0000 C   0  0  0  0  0  0  0  0  0  0  0  0
    1.3819   -1.7224    0.0000 N   0  0  0  0  0  0  0  0  0  0  0  0
    1.1270   -2.5070    0.0000 N   0  0  0  0  0  0  0  0  0  0  0  0
    0.3020   -2.5070    0.0000 C   0  0  0  0  0  0  0  0  0  0  0  0
    0.0470   -1.7224    0.0000 C   0  0  0  0  0  0  0  0  0  0  0  0
    1.6119   -3.1745    0.0000 C   0  0  0  0  0  0  0  0  0  0  0  0
    2.4324   -3.0882    0.0000 C   0  0  0  0  0  0  0  0  0  0  0  0
    2.9173   -3.7557    0.0000 C   0  0  0  0  0  0  0  0  0  0  0  0
    2.5817   -4.5094    0.0000 C   0  0  0  0  0  0  0  0  0  0  0  0
    1.7613   -4.5956    0.0000 C   0  0  0  0  0  0  0  0  0  0  0  0
    1.2763   -3.9282    0.0000 C   0  0  0  0  0  0  0  0  0  0  0  0
  1  2  1  0  0  0  0
  2  3  2  0  0  0  0
  3  4  1  0  0  0  0
  4  5  1  0  0  0  0
  5  6  1  0  0  0  0
  2  6  1  0  0  0  0
  4  7  1  0  0  0  0
  7  8  2  0  0  0  0
  8  9  1  0  0  0  0
  9 10  2  0  0  0  0
 10 11  1  0  0  0  0
 11 12  2  0  0  0  0
  7 12  1  0  0  0  0
M  END
>  <Catalog ID>
Z57473788

>  <PlateID>
1198308-R-SPFL-08

>  <Well>
B08

>  <MW (desalted)>
161.204

>  <ClogP>
1.373

>  <HBD>
1

>  <TPSA>
41.620

>  <RotBonds>
1

$$$$

            

 13 14  0  0  0  0            999 V2000
    0.7145   -0.4125    0.0000 N   0  0  0  0  0  0  0  0  0  0  0  0
    0.7145   -1.2375    0.0000 C   0  0  0  0  0  0  0  0  0  0  0  0
    1.4289   -1.6500    0.0000 C   0  0  0  0  0  0  0  0  0  0  0  0
    1.4289   -2.4750    0.0000 C   0  0  0  0  0  0  0  0  0  0  0  0
    0.7145   -2.8875    0.0000 N   0  0  0  0  0  0  0  0  0  0  0  0
    0.0000   -2.4750    0.0000 C   0  0  0  0  0  0  0  0  0  0  0  0
    0.0000   -1.6500    0.0000 C   0  0  0  0  0  0  0  0  0  0  0  0
   -0.7145   -2.8875    0.0000 C   0  0  0  0  0  0  0  0  0  0  0  0
   -0.7145   -3.7125    0.0000 C   0  0  0  0  0  0  0  0  0  0  0  0
   -1.4289   -4.1250    0.0000 C   0  0  0  0  0  0  0  0  0  0  0  0
   -2.1434   -3.7125    0.0000 C   0  0  0  0  0  0  0  0  0  0  0  0
   -2.1434   -2.8875    0.0000 C   0  0  0  0  0  0  0  0  0  0  0  0
   -1.4289   -2.4750    0.0000 C   0  0  0  0  0  0  0  0  0  0  0  0
  1  2  1  0  0  0  0
  2  3  2  0  0  0  0
  3  4  1  0  0  0  0
  4  5  2  0  0  0  0
  5  6  1  0  0  0  0
  6  7  2  0  0  0  0
  2  7  1  0  0  0  0
  6  8  1  0  0  0  0
  8  9  2  0  0  0  0
  9 10  1  0  0  0  0
 10 11  2  0  0  0  0
 11 12  1  0  0  0  0
 12 13  2  0  0  0  0
  8 13  1  0  0  0  0
M  END
>  <Catalog ID>
Z1083217772

>  <PlateID>
1198308-R-SPFL-08

>  <Well>
B09

>  <MW (desalted)>
170.211

>  <ClogP>
2.416

>  <HBD>
1

>  <TPSA>
38.910

>  <RotBonds>
1

$$$$

            

 11 11  0  0  0  0            999 V2000
    0.0000    0.0000    0.0000 Cl  0  0  0  0  0  0  0  0  0  0  0  0
    2.3571   -1.3069    0.0000 C   0  0  0  0  0  0  0  0  0  0  0  0
    2.6121   -0.5222    0.0000 C   0  0  0  0  0  0  0  0  0  0  0  0
    2.1272    0.1452    0.0000 N   0  0  0  0  0  0  0  0  0  0  0  0
    2.6121    0.8126    0.0000 N   0  0  0  0  0  0  0  0  0  0  0  0
    3.3967    0.5577    0.0000 C   0  0  0  0  0  0  0  0  0  0  0  0
    4.1112    0.9702    0.0000 C   0  0  0  0  0  0  0  0  0  0  0  0
    4.8256    0.5577    0.0000 C   0  0  0  0  0  0  0  0  0  0  0  0
    4.8256   -0.2673    0.0000 C   0  0  0  0  0  0  0  0  0  0  0  0
    4.1112   -0.6798    0.0000 C   0  0  0  0  0  0  0  0  0  0  0  0
    3.3967   -0.2673    0.0000 C   0  0  0  0  0  0  0  0  0  0  0  0
  2  3  1  0  0  0  0
  3  4  1  0  0  0  0
  4  5  1  0  0  0  0
  5  6  2  0  0  0  0
  6  7  1  0  0  0  0
  7  8  2  0  0  0  0
  8  9  1  0  0  0  0
  9 10  2  0  0  0  0
 10 11  1  0  0  0  0
  3 11  2  0  0  0  0
  6 11  1  0  0  0  0
M  END
>  <Catalog ID>
Z1258992514

>  <PlateID>
1198308-R-SPFL-08

>  <Well>
B10

>  <MW (desalted)>
132.163

>  <ClogP>
1.894

>  <HBD>
1

>  <TPSA>
28.680

>  <RotBonds>
0

$$$$

            

 13 14  0  0  0  0            999 V2000
   -0.7145   -0.4125    0.0000 O   0  0  0  0  0  0  0  0  0  0  0  0
    0.0000   -0.0000    0.0000 C   0  0  0  0  0  0  0  0  0  0  0  0
    0.0000    0.8250    0.0000 O   0  0  0  0  0  0  0  0  0  0  0  0
    0.7145   -0.4125    0.0000 C   0  0  0  0  0  0  0  0  0  0  0  0
    1.4289    0.0000    0.0000 C   0  0  0  0  0  0  0  0  0  0  0  0
    2.1434   -0.4125    0.0000 C   0  0  0  0  0  0  0  0  0  0  0  0
    2.8579    0.0000    0.0000 C   0  0  0  0  0  0  0  0  0  0  0  0
    3.5724   -0.4125    0.0000 C   0  0  0  0  0  0  0  0  0  0  0  0
    3.5724   -1.2375    0.0000 C   0  0  0  0  0  0  0  0  0  0  0  0
    2.8579   -1.6500    0.0000 C   0  0  0  0  0  0  0  0  0  0  0  0
    2.1434   -1.2375    0.0000 C   0  0  0  0  0  0  0  0  0  0  0  0
    1.4289   -1.6500    0.0000 C   0  0  0  0  0  0  0  0  0  0  0  0
    0.7145   -1.2375    0.0000 N   0  0  0  0  0  0  0  0  0  0  0  0
  1  2  1  0  0  0  0
  2  3  2  0  0  0  0
  2  4  1  0  0  0  0
  4  5  2  0  0  0  0
  5  6  1  0  0  0  0
  6  7  1  0  0  0  0
  7  8  1  0  0  0  0
  8  9  1  0  0  0  0
  9 10  1  0  0  0  0
 10 11  1  0  0  0  0
  6 11  2  0  0  0  0
 11 12  1  0  0  0  0
 12 13  2  0  0  0  0
  4 13  1  0  0  0  0
M  END
>  <Catalog ID>
Z1255458611

>  <PlateID>
1198308-R-SPFL-08

>  <Well>
B11

>  <MW (desalted)>
177.200

>  <ClogP>
2.571

>  <HBD>
1

>  <TPSA>
50.190

>  <RotBonds>
1

$$$$

            

 12 13  0  0  0  0            999 V2000
    2.5330    0.1698    0.0000 C   0  0  0  0  0  0  0  0  0  0  0  0
    2.5330   -0.6552    0.0000 C   0  0  0  0  0  0  0  0  0  0  0  0
    3.2004   -1.1401    0.0000 N   0  0  0  0  0  0  0  0  0  0  0  0
    2.9455   -1.9248    0.0000 N   0  0  0  0  0  0  0  0  0  0  0  0
    2.1205   -1.9248    0.0000 C   0  0  0  0  0  0  0  0  0  0  0  0
    1.6356   -2.5922    0.0000 N   0  0  0  0  0  0  0  0  0  0  0  0
    0.8151   -2.5060    0.0000 C   0  0  0  0  0  0  0  0  0  0  0  0
    0.2630   -3.1191    0.0000 C   0  0  0  0  0  0  0  0  0  0  0  0
   -0.4906   -2.7835    0.0000 C   0  0  0  0  0  0  0  0  0  0  0  0
   -0.4044   -1.9630    0.0000 C   0  0  0  0  0  0  0  0  0  0  0  0
    0.4026   -1.7915    0.0000 C   0  0  0  0  0  0  0  0  0  0  0  0
    1.8655   -1.1401    0.0000 S   0  0  0  0  0  0  0  0  0  0  0  0
  1  2  1  0  0  0  0
  2  3  2  0  0  0  0
  3  4  1  0  0  0  0
  4  5  2  0  0  0  0
  5  6  1  0  0  0  0
  6  7  1  0  0  0  0
  7  8  1  0  0  0  0
  8  9  1  0  0  0  0
  9 10  1  0  0  0  0
 10 11  1  0  0  0  0
  7 11  1  0  0  0  0
  5 12  1  0  0  0  0
  2 12  1  0  0  0  0
M  END
>  <Catalog ID>
Z56871585

>  <PlateID>
1198308-R-SPFL-08

>  <Well>
C02

>  <MW (desalted)>
183.274

>  <ClogP>
2.351

>  <HBD>
1

>  <TPSA>
37.810

>  <RotBonds>
2

$$$$

            

 14 15  0  0  0  0            999 V2000
    2.0367   -0.4741    0.0000 N   0  0  0  0  0  0  0  0  0  0  0  0
    2.0367   -1.2991    0.0000 C   0  0  0  0  0  0  0  0  0  0  0  0
    2.7041   -1.7840    0.0000 N   0  0  0  0  0  0  0  0  0  0  0  0
    2.4492   -2.5687    0.0000 N   0  0  0  0  0  0  0  0  0  0  0  0
    1.6242   -2.5687    0.0000 C   0  0  0  0  0  0  0  0  0  0  0  0
    1.1393   -3.2361    0.0000 C   0  0  0  0  0  0  0  0  0  0  0  0
    0.3188   -3.1499    0.0000 C   0  0  0  0  0  0  0  0  0  0  0  0
   -0.1661   -3.8173    0.0000 C   0  0  0  0  0  0  0  0  0  0  0  0
   -0.9866   -3.7311    0.0000 C   0  0  0  0  0  0  0  0  0  0  0  0
   -1.3222   -2.9774    0.0000 C   0  0  0  0  0  0  0  0  0  0  0  0
   -2.1426   -2.8911    0.0000 F   0  0  0  0  0  0  0  0  0  0  0  0
   -0.8372   -2.3099    0.0000 C   0  0  0  0  0  0  0  0  0  0  0  0
   -0.0168   -2.3962    0.0000 C   0  0  0  0  0  0  0  0  0  0  0  0
    1.3693   -1.7840    0.0000 O   0  0  0  0  0  0  0  0  0  0  0  0
  1  2  1  0  0  0  0
  2  3  2  0  0  0  0
  3  4  1  0  0  0  0
  4  5  2  0  0  0  0
  5  6  1  0  0  0  0
  6  7  1  0  0  0  0
  7  8  2  0  0  0  0
  8  9  1  0  0  0  0
  9 10  2  0  0  0  0
 10 11  1  0  0  0  0
 10 12  1  0  0  0  0
 12 13  2  0  0  0  0
  7 13  1  0  0  0  0
  5 14  1  0  0  0  0
  2 14  1  0  0  0  0
M  END
>  <Catalog ID>
Z285233926

>  <PlateID>
1198308-R-SPFL-08

>  <Well>
C03

>  <MW (desalted)>
193.178

>  <ClogP>
0.697

>  <HBD>
1

>  <TPSA>
64.940

>  <RotBonds>
2

$$$$

            

 11 12  0  0  0  0            999 V2000
   -0.1712   -0.6979    0.0000 C   0  0  0  0  0  0  0  0  0  0  0  0
    0.6538   -0.6979    0.0000 C   0  0  0  0  0  0  0  0  0  0  0  0
    1.1387   -0.0305    0.0000 N   0  0  0  0  0  0  0  0  0  0  0  0
    1.9233   -0.2854    0.0000 C   0  0  0  0  0  0  0  0  0  0  0  0
    2.6378    0.1271    0.0000 C   0  0  0  0  0  0  0  0  0  0  0  0
    2.6378    0.9521    0.0000 C   0  0  0  0  0  0  0  0  0  0  0  0
    3.3523   -0.2854    0.0000 C   0  0  0  0  0  0  0  0  0  0  0  0
    3.3523   -1.1104    0.0000 C   0  0  0  0  0  0  0  0  0  0  0  0
    2.6378   -1.5229    0.0000 N   0  0  0  0  0  0  0  0  0  0  0  0
    1.9233   -1.1104    0.0000 C   0  0  0  0  0  0  0  0  0  0  0  0
    1.1387   -1.3654    0.0000 N   0  0  0  0  0  0  0  0  0  0  0  0
  1  2  1  0  0  0  0
  2  3  2  0  0  0  0
  3  4  1  0  0  0  0
  4  5  2  0  0  0  0
  5  6  1  0  0  0  0
  5  7  1  0  0  0  0
  7  8  2  0  0  0  0
  8  9  1  0  0  0  0
  9 10  2  0  0  0  0
  4 10  1  0  0  0  0
 10 11  1  0  0  0  0
  2 11  1  0  0  0  0
M  END
>  <Catalog ID>
Z1154249032

>  <PlateID>
1198308-R-SPFL-08

>  <Well>
C04

>  <MW (desalted)>
147.177

>  <ClogP>
1.430

>  <HBD>
1

>  <TPSA>
41.570

>  <RotBonds>
0

$$$$

            

 12 13  0  0  0  0            999 V2000
    0.0000   -1.6500    0.0000 C   0  0  0  0  0  0  0  0  0  0  0  0
    0.7145   -1.2375    0.0000 C   0  0  0  0  0  0  0  0  0  0  0  0
    0.7145   -0.4125    0.0000 C   0  0  0  0  0  0  0  0  0  0  0  0
    1.4289    0.0000    0.0000 C   0  0  0  0  0  0  0  0  0  0  0  0
    2.1434   -0.4125    0.0000 C   0  0  0  0  0  0  0  0  0  0  0  0
    2.8579    0.0000    0.0000 C   0  0  0  0  0  0  0  0  0  0  0  0
    2.8579    0.8250    0.0000 O   0  0  0  0  0  0  0  0  0  0  0  0
    3.5724   -0.4125    0.0000 C   0  0  0  0  0  0  0  0  0  0  0  0
    3.5724   -1.2375    0.0000 C   0  0  0  0  0  0  0  0  0  0  0  0
    2.8579   -1.6500    0.0000 N   0  0  0  0  0  0  0  0  0  0  0  0
    2.1434   -1.2375    0.0000 C   0  0  0  0  0  0  0  0  0  0  0  0
    1.4289   -1.6500    0.0000 N   0  0  0  0  0  0  0  0  0  0  0  0
  1  2  1  0  0  0  0
  2  3  1  0  0  0  0
  3  4  2  0  0  0  0
  4  5  1  0  0  0  0
  5  6  2  0  0  0  0
  6  7  1  0  0  0  0
  6  8  1  0  0  0  0
  8  9  2  0  0  0  0
  9 10  1  0  0  0  0
 10 11  2  0  0  0  0
  5 11  1  0  0  0  0
 11 12  1  0  0  0  0
  2 12  2  0  0  0  0
M  END
>  <Catalog ID>
Z1198180960

>  <PlateID>
1198308-R-SPFL-08

>  <Well>
C05

>  <MW (desalted)>
160.173

>  <ClogP>
1.973

>  <HBD>
1

>  <TPSA>
46.010

>  <RotBonds>
0

$$$$

            

 16 18  0  0  0  0            999 V2000
    0.8838   -2.1500    0.0000 C   0  0  0  0  0  0  0  0  0  0  0  0
    1.1387   -1.3654    0.0000 C   0  0  0  0  0  0  0  0  0  0  0  0
    0.6538   -0.6979    0.0000 N   0  0  0  0  0  0  0  0  0  0  0  0
    1.1387   -0.0305    0.0000 O   0  0  0  0  0  0  0  0  0  0  0  0
    1.9233   -0.2854    0.0000 C   0  0  0  0  0  0  0  0  0  0  0  0
    2.6378    0.1271    0.0000 N   0  0  0  0  0  0  0  0  0  0  0  0
    3.3523   -0.2854    0.0000 C   0  0  0  0  0  0  0  0  0  0  0  0
    3.3523   -1.1104    0.0000 C   0  0  0  0  0  0  0  0  0  0  0  0
    2.6378   -1.5229    0.0000 C   0  0  0  0  0  0  0  0  0  0  0  0
    1.9233   -1.1104    0.0000 C   0  0  0  0  0  0  0  0  0  0  0  0
    4.0668   -1.5229    0.0000 C   0  0  0  0  0  0  0  0  0  0  0  0
    4.0668   -2.3479    0.0000 O   0  0  0  0  0  0  0  0  0  0  0  0
    4.7812   -1.1104    0.0000 N   0  0  0  0  0  0  0  0  0  0  0  0
    5.4957   -1.5229    0.0000 C   0  0  0  0  0  0  0  0  0  0  0  0
    6.3207   -1.5229    0.0000 C   0  0  0  0  0  0  0  0  0  0  0  0
    5.9082   -2.2374    0.0000 C   0  0  0  0  0  0  0  0  0  0  0  0
  1  2  1  0  0  0  0
  2  3  2  0  0  0  0
  3  4  1  0  0  0  0
  4  5  1  0  0  0  0
  5  6  2  0  0  0  0
  6  7  1  0  0  0  0
  7  8  2  0  0  0  0
  8  9  1  0  0  0  0
  9 10  2  0  0  0  0
  2 10  1  0  0  0  0
  5 10  1  0  0  0  0
  8 11  1  0  0  0  0
 11 12  2  0  0  0  0
 11 13  1  0  0  0  0
 13 14  1  0  0  0  0
 14 15  1  0  0  0  0
 15 16  1  0  0  0  0
 14 16  1  0  0  0  0
M  END
>  <Catalog ID>
Z271101546

>  <PlateID>
1198308-R-SPFL-08

>  <Well>
C06

>  <MW (desalted)>
217.224

>  <ClogP>
1.063

>  <HBD>
1

>  <TPSA>
68.020

>  <RotBonds>
2

$$$$

            

 11 12  0  0  0  0            999 V2000
    1.4289   -2.4750    0.0000 N   0  0  0  0  0  0  0  0  0  0  0  0
    1.4289   -1.6500    0.0000 C   0  0  0  0  0  0  0  0  0  0  0  0
    0.7145   -1.2375    0.0000 N   0  0  0  0  0  0  0  0  0  0  0  0
    0.7145   -0.4125    0.0000 C   0  0  0  0  0  0  0  0  0  0  0  0
    1.4289    0.0000    0.0000 C   0  0  0  0  0  0  0  0  0  0  0  0
    2.1434   -0.4125    0.0000 C   0  0  0  0  0  0  0  0  0  0  0  0
    2.8579    0.0000    0.0000 C   0  0  0  0  0  0  0  0  0  0  0  0
    3.5724   -0.4125    0.0000 C   0  0  0  0  0  0  0  0  0  0  0  0
    3.5724   -1.2375    0.0000 C   0  0  0  0  0  0  0  0  0  0  0  0
    2.8579   -1.6500    0.0000 C   0  0  0  0  0  0  0  0  0  0  0  0
    2.1434   -1.2375    0.0000 C   0  0  0  0  0  0  0  0  0  0  0  0
  1  2  1  0  0  0  0
  2  3  2  0  0  0  0
  3  4  1  0  0  0  0
  4  5  2  0  0  0  0
  5  6  1  0  0  0  0
  6  7  2  0  0  0  0
  7  8  1  0  0  0  0
  8  9  2  0  0  0  0
  9 10  1  0  0  0  0
 10 11  2  0  0  0  0
  2 11  1  0  0  0  0
  6 11  1  0  0  0  0
M  END
>  <Catalog ID>
Z1203162487

>  <PlateID>
1198308-R-SPFL-08

>  <Well>
C07

>  <MW (desalted)>
144.173

>  <ClogP>
1.492

>  <HBD>
1

>  <TPSA>
38.910

>  <RotBonds>
0

$$$$

            

 14 15  0  0  0  0            999 V2000
    2.7512   -0.0616    0.0000 O   0  0  0  0  0  0  0  0  0  0  0  0
    2.0367   -0.4741    0.0000 C   0  0  0  0  0  0  0  0  0  0  0  0
    2.0367   -1.2991    0.0000 C   0  0  0  0  0  0  0  0  0  0  0  0
    2.7041   -1.7840    0.0000 C   0  0  0  0  0  0  0  0  0  0  0  0
    2.4492   -2.5687    0.0000 N   0  0  0  0  0  0  0  0  0  0  0  0
    1.6242   -2.5687    0.0000 N   0  0  0  0  0  0  0  0  0  0  0  0
    1.1393   -3.2361    0.0000 C   0  0  0  0  0  0  0  0  0  0  0  0
    0.3188   -3.1499    0.0000 C   0  0  0  0  0  0  0  0  0  0  0  0
   -0.1661   -3.8173    0.0000 C   0  0  0  0  0  0  0  0  0  0  0  0
   -0.9866   -3.7311    0.0000 C   0  0  0  0  0  0  0  0  0  0  0  0
   -1.3222   -2.9774    0.0000 C   0  0  0  0  0  0  0  0  0  0  0  0
   -0.8372   -2.3099    0.0000 C   0  0  0  0  0  0  0  0  0  0  0  0
   -0.0168   -2.3962    0.0000 C   0  0  0  0  0  0  0  0  0  0  0  0
    1.3693   -1.7840    0.0000 C   0  0  0  0  0  0  0  0  0  0  0  0
  1  2  1  0  0  0  0
  2  3  1  0  0  0  0
  3  4  1  0  0  0  0
  4  5  2  0  0  0  0
  5  6  1  0  0  0  0
  6  7  1  0  0  0  0
  7  8  1  0  0  0  0
  8  9  2  0  0  0  0
  9 10  1  0  0  0  0
 10 11  2  0  0  0  0
 11 12  1  0  0  0  0
 12 13  2  0  0  0  0
  8 13  1  0  0  0  0
  6 14  1  0  0  0  0
  3 14  2  0  0  0  0
M  END
>  <Catalog ID>
Z228585364

>  <PlateID>
1198308-R-SPFL-08

>  <Well>
C08

>  <MW (desalted)>
188.226

>  <ClogP>
1.177

>  <HBD>
1

>  <TPSA>
38.050

>  <RotBonds>
3

$$$$

            

 13 13  0  0  0  0            999 V2000
    0.0000    3.3000    0.0000 C   0  0  0  0  0  0  0  0  0  0  0  0
    0.0000    2.4750    0.0000 N   0  0  0  0  0  0  0  0  0  0  0  0
    0.7145    2.0625    0.0000 C   0  0  0  0  0  0  0  0  0  0  0  0
    1.4289    2.4750    0.0000 C   0  0  0  0  0  0  0  0  0  0  0  0
    2.1434    2.0625    0.0000 O   0  0  0  0  0  0  0  0  0  0  0  0
    1.4289    3.3000    0.0000 N   0  0  0  0  0  0  0  0  0  0  0  0
    0.7145    1.2375    0.0000 C   0  0  0  0  0  0  0  0  0  0  0  0
    1.4289    0.8250    0.0000 C   0  0  0  0  0  0  0  0  0  0  0  0
    1.4289   -0.0000    0.0000 C   0  0  0  0  0  0  0  0  0  0  0  0
    0.7145   -0.4125    0.0000 C   0  0  0  0  0  0  0  0  0  0  0  0
    0.0000    0.0000    0.0000 C   0  0  0  0  0  0  0  0  0  0  0  0
   -0.7145   -0.4125    0.0000 F   0  0  0  0  0  0  0  0  0  0  0  0
    0.0000    0.8250    0.0000 C   0  0  0  0  0  0  0  0  0  0  0  0
  1  2  1  0  0  0  0
  2  3  1  0  0  0  0
  3  4  1  0  0  0  0
  4  5  2  0  0  0  0
  4  6  1  0  0  0  0
  3  7  1  0  0  0  0
  7  8  2  0  0  0  0
  8  9  1  0  0  0  0
  9 10  2  0  0  0  0
 10 11  1  0  0  0  0
 11 12  1  0  0  0  0
 11 13  2  0  0  0  0
  7 13  1  0  0  0  0
M  END
>  <Catalog ID>
Z477328312

>  <PlateID>
1198308-R-SPFL-08

>  <Well>
C09

>  <MW (desalted)>
182.195

>  <ClogP>
0.274

>  <HBD>
2

>  <TPSA>
55.120

>  <RotBonds>
3

$$$$

            

 14 14  0  0  0  0            999 V2000
    0.0000    0.0000    0.0000 Cl  0  0  0  0  0  0  0  0  0  0  0  0
    4.8030    2.5508    0.0000 N   0  0  0  0  0  0  0  0  0  0  0  0
    4.0885    2.1383    0.0000 C   0  0  0  0  0  0  0  0  0  0  0  0
    4.0885    1.3133    0.0000 C   0  0  0  0  0  0  0  0  0  0  0  0
    4.7560    0.8284    0.0000 C   0  0  0  0  0  0  0  0  0  0  0  0
    4.5010    0.0438    0.0000 O   0  0  0  0  0  0  0  0  0  0  0  0
    3.6760    0.0438    0.0000 C   0  0  0  0  0  0  0  0  0  0  0  0
    3.4211    0.8284    0.0000 N   0  0  0  0  0  0  0  0  0  0  0  0
    3.1911   -0.6237    0.0000 C   0  0  0  0  0  0  0  0  0  0  0  0
    3.5267   -1.3774    0.0000 C   0  0  0  0  0  0  0  0  0  0  0  0
    3.0418   -2.0448    0.0000 C   0  0  0  0  0  0  0  0  0  0  0  0
    2.2213   -1.9586    0.0000 C   0  0  0  0  0  0  0  0  0  0  0  0
    1.8857   -1.2049    0.0000 C   0  0  0  0  0  0  0  0  0  0  0  0
    2.3706   -0.5374    0.0000 C   0  0  0  0  0  0  0  0  0  0  0  0
  2  3  1  0  0  0  0
  3  4  1  0  0  0  0
  4  5  2  0  0  0  0
  5  6  1  0  0  0  0
  6  7  1  0  0  0  0
  7  8  2  0  0  0  0
  4  8  1  0  0  0  0
  7  9  1  0  0  0  0
  9 10  2  0  0  0  0
 10 11  1  0  0  0  0
 11 12  2  0  0  0  0
 12 13  1  0  0  0  0
 13 14  2  0  0  0  0
  9 14  1  0  0  0  0
M  END
>  <Catalog ID>
Z1259335888

>  <PlateID>
1198308-R-SPFL-08

>  <Well>
C10

>  <MW (desalted)>
174.199

>  <ClogP>
0.871

>  <HBD>
1

>  <TPSA>
52.050

>  <RotBonds>
2

$$$$

            

 11 12  0  0  0  0            999 V2000
    1.4289   -2.4750    0.0000 F   0  0  0  0  0  0  0  0  0  0  0  0
    1.4289   -1.6500    0.0000 C   0  0  0  0  0  0  0  0  0  0  0  0
    0.7145   -1.2375    0.0000 C   0  0  0  0  0  0  0  0  0  0  0  0
    0.7145   -0.4125    0.0000 C   0  0  0  0  0  0  0  0  0  0  0  0
    1.4289    0.0000    0.0000 C   0  0  0  0  0  0  0  0  0  0  0  0
    2.1434   -0.4125    0.0000 C   0  0  0  0  0  0  0  0  0  0  0  0
    2.8579    0.0000    0.0000 C   0  0  0  0  0  0  0  0  0  0  0  0
    3.5724   -0.4125    0.0000 C   0  0  0  0  0  0  0  0  0  0  0  0
    3.5724   -1.2375    0.0000 N   0  0  0  0  0  0  0  0  0  0  0  0
    2.8579   -1.6500    0.0000 C   0  0  0  0  0  0  0  0  0  0  0  0
    2.1434   -1.2375    0.0000 C   0  0  0  0  0  0  0  0  0  0  0  0
  1  2  1  0  0  0  0
  2  3  2  0  0  0  0
  3  4  1  0  0  0  0
  4  5  2  0  0  0  0
  5  6  1  0  0  0  0
  6  7  2  0  0  0  0
  7  8  1  0  0  0  0
  8  9  2  0  0  0  0
  9 10  1  0  0  0  0
 10 11  2  0  0  0  0
  2 11  1  0  0  0  0
  6 11  1  0  0  0  0
M  END
>  <Catalog ID>
Z916812496

>  <PlateID>
1198308-R-SPFL-08

>  <Well>
C11

>  <MW (desalted)>
147.149

>  <ClogP>
2.025

>  <HBD>
0

>  <TPSA>
12.890

>  <RotBonds>
0

$$$$

            

 14 16  0  0  0  0            999 V2000
    0.7117   -3.5424    0.0000 O   0  0  0  0  0  0  0  0  0  0  0  0
    0.9666   -2.7578    0.0000 C   0  0  0  0  0  0  0  0  0  0  0  0
    0.4146   -2.1447    0.0000 N   0  0  0  0  0  0  0  0  0  0  0  0
    0.6695   -1.3601    0.0000 C   0  0  0  0  0  0  0  0  0  0  0  0
    1.4765   -1.1885    0.0000 N   0  0  0  0  0  0  0  0  0  0  0  0
    2.0285   -1.8016    0.0000 C   0  0  0  0  0  0  0  0  0  0  0  0
    2.8535   -1.8016    0.0000 C   0  0  0  0  0  0  0  0  0  0  0  0
    3.4056   -1.1885    0.0000 C   0  0  0  0  0  0  0  0  0  0  0  0
    4.2125   -1.3601    0.0000 C   0  0  0  0  0  0  0  0  0  0  0  0
    4.4675   -2.1447    0.0000 C   0  0  0  0  0  0  0  0  0  0  0  0
    3.9154   -2.7578    0.0000 C   0  0  0  0  0  0  0  0  0  0  0  0
    3.1085   -2.5862    0.0000 C   0  0  0  0  0  0  0  0  0  0  0  0
    2.4410   -3.0712    0.0000 O   0  0  0  0  0  0  0  0  0  0  0  0
    1.7736   -2.5862    0.0000 C   0  0  0  0  0  0  0  0  0  0  0  0
  1  2  2  0  0  0  0
  2  3  1  0  0  0  0
  3  4  1  0  0  0  0
  4  5  2  0  0  0  0
  5  6  1  0  0  0  0
  6  7  1  0  0  0  0
  7  8  1  0  0  0  0
  8  9  2  0  0  0  0
  9 10  1  0  0  0  0
 10 11  2  0  0  0  0
 11 12  1  0  0  0  0
  7 12  2  0  0  0  0
 12 13  1  0  0  0  0
 13 14  1  0  0  0  0
  2 14  1  0  0  0  0
  6 14  2  0  0  0  0
M  END
>  <Catalog ID>
Z62452555

>  <PlateID>
1198308-R-SPFL-08

>  <Well>
D02

>  <MW (desalted)>
186.167

>  <ClogP>
0.865

>  <HBD>
1

>  <TPSA>
54.600

>  <RotBonds>
0

$$$$

            

 14 15  0  0  0  0            999 V2000
    2.0367   -0.4741    0.0000 N   0  0  0  0  0  0  0  0  0  0  0  0
    2.0367   -1.2991    0.0000 C   0  0  0  0  0  0  0  0  0  0  0  0
    2.7041   -1.7840    0.0000 N   0  0  0  0  0  0  0  0  0  0  0  0
    2.4492   -2.5687    0.0000 N   0  0  0  0  0  0  0  0  0  0  0  0
    1.6242   -2.5687    0.0000 C   0  0  0  0  0  0  0  0  0  0  0  0
    1.1393   -3.2361    0.0000 C   0  0  0  0  0  0  0  0  0  0  0  0
    0.3188   -3.1499    0.0000 C   0  0  0  0  0  0  0  0  0  0  0  0
   -0.1661   -3.8173    0.0000 C   0  0  0  0  0  0  0  0  0  0  0  0
   -0.9866   -3.7311    0.0000 C   0  0  0  0  0  0  0  0  0  0  0  0
   -1.3222   -2.9774    0.0000 C   0  0  0  0  0  0  0  0  0  0  0  0
   -0.8372   -2.3099    0.0000 C   0  0  0  0  0  0  0  0  0  0  0  0
   -1.1728   -1.5563    0.0000 F   0  0  0  0  0  0  0  0  0  0  0  0
   -0.0168   -2.3962    0.0000 C   0  0  0  0  0  0  0  0  0  0  0  0
    1.3693   -1.7840    0.0000 O   0  0  0  0  0  0  0  0  0  0  0  0
  1  2  1  0  0  0  0
  2  3  2  0  0  0  0
  3  4  1  0  0  0  0
  4  5  2  0  0  0  0
  5  6  1  0  0  0  0
  6  7  1  0  0  0  0
  7  8  2  0  0  0  0
  8  9  1  0  0  0  0
  9 10  2  0  0  0  0
 10 11  1  0  0  0  0
 11 12  1  0  0  0  0
 11 13  2  0  0  0  0
  7 13  1  0  0  0  0
  5 14  1  0  0  0  0
  2 14  1  0  0  0  0
M  END
>  <Catalog ID>
Z285233958

>  <PlateID>
1198308-R-SPFL-08

>  <Well>
D03

>  <MW (desalted)>
193.178

>  <ClogP>
0.697

>  <HBD>
1

>  <TPSA>
64.940

>  <RotBonds>
2

$$$$

            

 14 15  0  0  0  0            999 V2000
    1.4289   -3.3000    0.0000 N   0  0  0  0  0  0  0  0  0  0  0  0
    1.4289   -2.4750    0.0000 S   0  0  0  0  0  0  0  0  0  0  0  0
    2.2539   -2.4750    0.0000 O   0  0  0  0  0  0  0  0  0  0  0  0
    0.6039   -2.4750    0.0000 O   0  0  0  0  0  0  0  0  0  0  0  0
    1.4289   -1.6500    0.0000 C   0  0  0  0  0  0  0  0  0  0  0  0
    0.7145   -1.2375    0.0000 C   0  0  0  0  0  0  0  0  0  0  0  0
    0.7145   -0.4125    0.0000 C   0  0  0  0  0  0  0  0  0  0  0  0
    1.4289    0.0000    0.0000 C   0  0  0  0  0  0  0  0  0  0  0  0
    2.1434   -0.4125    0.0000 C   0  0  0  0  0  0  0  0  0  0  0  0
    2.8579    0.0000    0.0000 C   0  0  0  0  0  0  0  0  0  0  0  0
    3.5724   -0.4125    0.0000 C   0  0  0  0  0  0  0  0  0  0  0  0
    3.5724   -1.2375    0.0000 C   0  0  0  0  0  0  0  0  0  0  0  0
    2.8579   -1.6500    0.0000 N   0  0  0  0  0  0  0  0  0  0  0  0
    2.1434   -1.2375    0.0000 C   0  0  0  0  0  0  0  0  0  0  0  0
  1  2  1  0  0  0  0
  2  3  2  0  0  0  0
  2  4  2  0  0  0  0
  2  5  1  0  0  0  0
  5  6  2  0  0  0  0
  6  7  1  0  0  0  0
  7  8  2  0  0  0  0
  8  9  1  0  0  0  0
  9 10  2  0  0  0  0
 10 11  1  0  0  0  0
 11 12  2  0  0  0  0
 12 13  1  0  0  0  0
 13 14  2  0  0  0  0
  5 14  1  0  0  0  0
  9 14  1  0  0  0  0
M  END
>  <Catalog ID>
Z57824497

>  <PlateID>
1198308-R-SPFL-08

>  <Well>
D04

>  <MW (desalted)>
208.237

>  <ClogP>
0.865

>  <HBD>
1

>  <TPSA>
73.050

>  <RotBonds>
1

$$$$

            

 14 15  0  0  0  0            999 V2000
    2.3183   -1.1364    0.0000 C   0  0  0  0  0  0  0  0  0  0  0  0
    2.3183   -1.9614    0.0000 C   0  0  0  0  0  0  0  0  0  0  0  0
    2.9858   -2.4463    0.0000 N   0  0  0  0  0  0  0  0  0  0  0  0
    2.7308   -3.2309    0.0000 C   0  0  0  0  0  0  0  0  0  0  0  0
    1.9058   -3.2309    0.0000 S   0  0  0  0  0  0  0  0  0  0  0  0
    1.6509   -2.4463    0.0000 C   0  0  0  0  0  0  0  0  0  0  0  0
    0.8663   -2.1913    0.0000 C   0  0  0  0  0  0  0  0  0  0  0  0
    0.6947   -1.3844    0.0000 O   0  0  0  0  0  0  0  0  0  0  0  0
    0.2532   -2.7434    0.0000 N   0  0  0  0  0  0  0  0  0  0  0  0
   -0.5314   -2.4884    0.0000 C   0  0  0  0  0  0  0  0  0  0  0  0
   -1.1989   -2.9734    0.0000 C   0  0  0  0  0  0  0  0  0  0  0  0
   -1.8663   -2.4884    0.0000 C   0  0  0  0  0  0  0  0  0  0  0  0
   -1.6114   -1.7038    0.0000 C   0  0  0  0  0  0  0  0  0  0  0  0
   -0.7864   -1.7038    0.0000 C   0  0  0  0  0  0  0  0  0  0  0  0
  1  2  1  0  0  0  0
  2  3  1  0  0  0  0
  3  4  2  0  0  0  0
  4  5  1  0  0  0  0
  5  6  1  0  0  0  0
  2  6  2  0  0  0  0
  6  7  1  0  0  0  0
  7  8  2  0  0  0  0
  7  9  1  0  0  0  0
  9 10  1  0  0  0  0
 10 11  1  0  0  0  0
 11 12  1  0  0  0  0
 12 13  1  0  0  0  0
 13 14  1  0  0  0  0
 10 14  1  0  0  0  0
M  END
>  <Catalog ID>
Z419873662

>  <PlateID>
1198308-R-SPFL-08

>  <Well>
D05

>  <MW (desalted)>
210.296

>  <ClogP>
1.596

>  <HBD>
1

>  <TPSA>
41.990

>  <RotBonds>
2

$$$$

            

 12 12  0  0  0  0            999 V2000
    0.0000    0.0000    0.0000 Cl  0  0  0  0  0  0  0  0  0  0  0  0
    2.3571   -1.3440    0.0000 N   0  0  0  0  0  0  0  0  0  0  0  0
    3.1641   -1.1725    0.0000 C   0  0  0  0  0  0  0  0  0  0  0  0
    3.4191   -0.3878    0.0000 C   0  0  0  0  0  0  0  0  0  0  0  0
    2.9341    0.2796    0.0000 N   0  0  0  0  0  0  0  0  0  0  0  0
    3.4191    0.9470    0.0000 S   0  0  0  0  0  0  0  0  0  0  0  0
    4.2037    0.6921    0.0000 C   0  0  0  0  0  0  0  0  0  0  0  0
    4.9181    1.1046    0.0000 C   0  0  0  0  0  0  0  0  0  0  0  0
    5.6326    0.6921    0.0000 C   0  0  0  0  0  0  0  0  0  0  0  0
    5.6326   -0.1329    0.0000 C   0  0  0  0  0  0  0  0  0  0  0  0
    4.9181   -0.5454    0.0000 C   0  0  0  0  0  0  0  0  0  0  0  0
    4.2037   -0.1329    0.0000 C   0  0  0  0  0  0  0  0  0  0  0  0
  2  3  1  0  0  0  0
  3  4  1  0  0  0  0
  4  5  2  0  0  0  0
  5  6  1  0  0  0  0
  6  7  1  0  0  0  0
  7  8  2  0  0  0  0
  8  9  1  0  0  0  0
  9 10  2  0  0  0  0
 10 11  1  0  0  0  0
 11 12  2  0  0  0  0
  4 12  1  0  0  0  0
  7 12  1  0  0  0  0
M  END
>  <Catalog ID>
Z2456396538

>  <PlateID>
1198308-R-SPFL-08

>  <Well>
D06

>  <MW (desalted)>
164.228

>  <ClogP>
1.207

>  <HBD>
1

>  <TPSA>
38.910

>  <RotBonds>
1

$$$$

            

 14 15  0  0  0  0            999 V2000
    0.0000    0.0000    0.0000 C   0  0  0  0  0  0  0  0  0  0  0  0
    0.7145   -0.4125    0.0000 O   0  0  0  0  0  0  0  0  0  0  0  0
    0.7145   -1.2375    0.0000 C   0  0  0  0  0  0  0  0  0  0  0  0
    1.4289   -1.6500    0.0000 C   0  0  0  0  0  0  0  0  0  0  0  0
    1.4289   -2.4750    0.0000 C   0  0  0  0  0  0  0  0  0  0  0  0
    0.7145   -2.8875    0.0000 C   0  0  0  0  0  0  0  0  0  0  0  0
    0.0000   -2.4750    0.0000 C   0  0  0  0  0  0  0  0  0  0  0  0
    0.0000   -1.6500    0.0000 C   0  0  0  0  0  0  0  0  0  0  0  0
    0.7145   -3.7125    0.0000 C   0  0  0  0  0  0  0  0  0  0  0  0
    1.4289   -4.1250    0.0000 C   0  0  0  0  0  0  0  0  0  0  0  0
    1.4289   -4.9500    0.0000 C   0  0  0  0  0  0  0  0  0  0  0  0
    0.7145   -5.3625    0.0000 N   0  0  0  0  0  0  0  0  0  0  0  0
    0.0000   -4.9500    0.0000 C   0  0  0  0  0  0  0  0  0  0  0  0
    0.0000   -4.1250    0.0000 C   0  0  0  0  0  0  0  0  0  0  0  0
  1  2  1  0  0  0  0
  2  3  1  0  0  0  0
  3  4  2  0  0  0  0
  4  5  1  0  0  0  0
  5  6  2  0  0  0  0
  6  7  1  0  0  0  0
  7  8  2  0  0  0  0
  3  8  1  0  0  0  0
  6  9  1  0  0  0  0
  9 10  1  0  0  0  0
 10 11  1  0  0  0  0
 11 12  1  0  0  0  0
 12 13  1  0  0  0  0
 13 14  1  0  0  0  0
  9 14  1  0  0  0  0
M  END
>  <Catalog ID>
Z236724238

>  <PlateID>
1198308-R-SPFL-08

>  <Well>
D07

>  <MW (desalted)>
191.269

>  <ClogP>
2.262

>  <HBD>
1

>  <TPSA>
21.260

>  <RotBonds>
2

$$$$

            

 13 13  0  0  0  0            999 V2000
    0.0000    2.4750    0.0000 C   0  0  0  0  0  0  0  0  0  0  0  0
    0.7145    2.0625    0.0000 C   0  0  0  0  0  0  0  0  0  0  0  0
    1.4289    2.4750    0.0000 C   0  0  0  0  0  0  0  0  0  0  0  0
    0.7145    1.2375    0.0000 C   0  0  0  0  0  0  0  0  0  0  0  0
    1.4289    0.8250    0.0000 N   0  0  0  0  0  0  0  0  0  0  0  0
    1.4289   -0.0000    0.0000 C   0  0  0  0  0  0  0  0  0  0  0  0
    0.7145   -0.4125    0.0000 C   0  0  0  0  0  0  0  0  0  0  0  0
    0.7145   -1.2375    0.0000 Cl  0  0  0  0  0  0  0  0  0  0  0  0
    0.0000    0.0000    0.0000 C   0  0  0  0  0  0  0  0  0  0  0  0
    0.0000    0.8250    0.0000 N   0  0  0  0  0  0  0  0  0  0  0  0
   -0.7145   -0.4125    0.0000 C   0  0  0  0  0  0  0  0  0  0  0  0
   -1.4289    0.0000    0.0000 O   0  0  0  0  0  0  0  0  0  0  0  0
   -0.7145   -1.2375    0.0000 N   0  0  0  0  0  0  0  0  0  0  0  0
  1  2  1  0  0  0  0
  2  3  1  0  0  0  0
  2  4  1  0  0  0  0
  4  5  2  0  0  0  0
  5  6  1  0  0  0  0
  6  7  2  0  0  0  0
  7  8  1  0  0  0  0
  7  9  1  0  0  0  0
  9 10  2  0  0  0  0
  4 10  1  0  0  0  0
  9 11  1  0  0  0  0
 11 12  2  0  0  0  0
 11 13  1  0  0  0  0
M  END
>  <Catalog ID>
Z906021418

>  <PlateID>
1198308-R-SPFL-08

>  <Well>
D08

>  <MW (desalted)>
199.638

>  <ClogP>
0.658

>  <HBD>
1

>  <TPSA>
68.870

>  <RotBonds>
2

$$$$

            

 13 13  0  0  0  0            999 V2000
    0.0000    0.0000    0.0000 Cl  0  0  0  0  0  0  0  0  0  0  0  0
    2.4353    2.3509    0.0000 C   0  0  0  0  0  0  0  0  0  0  0  0
    2.4353    1.5259    0.0000 C   0  0  0  0  0  0  0  0  0  0  0  0
    3.1027    1.0409    0.0000 N   0  0  0  0  0  0  0  0  0  0  0  0
    2.8478    0.2563    0.0000 C   0  0  0  0  0  0  0  0  0  0  0  0
    2.0228    0.2563    0.0000 N   0  0  0  0  0  0  0  0  0  0  0  0
    1.7679    1.0409    0.0000 O   0  0  0  0  0  0  0  0  0  0  0  0
    3.3327   -0.4111    0.0000 C   0  0  0  0  0  0  0  0  0  0  0  0
    4.1532   -0.3249    0.0000 C   0  0  0  0  0  0  0  0  0  0  0  0
    4.6381   -0.9923    0.0000 C   0  0  0  0  0  0  0  0  0  0  0  0
    4.3026   -1.7460    0.0000 N   0  0  0  0  0  0  0  0  0  0  0  0
    3.4821   -1.8322    0.0000 C   0  0  0  0  0  0  0  0  0  0  0  0
    2.9972   -1.1648    0.0000 C   0  0  0  0  0  0  0  0  0  0  0  0
  2  3  1  0  0  0  0
  3  4  2  0  0  0  0
  4  5  1  0  0  0  0
  5  6  2  0  0  0  0
  6  7  1  0  0  0  0
  3  7  1  0  0  0  0
  5  8  1  0  0  0  0
  8  9  1  0  0  0  0
  9 10  1  0  0  0  0
 10 11  1  0  0  0  0
 11 12  1  0  0  0  0
 12 13  1  0  0  0  0
  8 13  1  0  0  0  0
M  END
>  <Catalog ID>
Z1160899452

>  <PlateID>
1198308-R-SPFL-08

>  <Well>
D09

>  <MW (desalted)>
167.208

>  <ClogP>
-0.266

>  <HBD>
1

>  <TPSA>
50.950

>  <RotBonds>
1

$$$$

            

 15 15  0  0  0  0            999 V2000
    0.0000    0.0000    0.0000 Cl  0  0  0  0  0  0  0  0  0  0  0  0
    1.8857   -0.0085    0.0000 O   0  0  0  0  0  0  0  0  0  0  0  0
    2.6927    0.1631    0.0000 C   0  0  0  0  0  0  0  0  0  0  0  0
    2.9476    0.9477    0.0000 O   0  0  0  0  0  0  0  0  0  0  0  0
    3.2447   -0.4500    0.0000 C   0  0  0  0  0  0  0  0  0  0  0  0
    3.9122   -0.9350    0.0000 C   0  0  0  0  0  0  0  0  0  0  0  0
    3.6572   -1.7196    0.0000 C   0  0  0  0  0  0  0  0  0  0  0  0
    2.8322   -1.7196    0.0000 C   0  0  0  0  0  0  0  0  0  0  0  0
    2.5773   -0.9350    0.0000 C   0  0  0  0  0  0  0  0  0  0  0  0
    3.7968    0.1631    0.0000 C   0  0  0  0  0  0  0  0  0  0  0  0
    3.5418    0.9477    0.0000 C   0  0  0  0  0  0  0  0  0  0  0  0
    4.0938    1.5608    0.0000 C   0  0  0  0  0  0  0  0  0  0  0  0
    4.9008    1.3892    0.0000 C   0  0  0  0  0  0  0  0  0  0  0  0
    5.1558    0.6046    0.0000 N   0  0  0  0  0  0  0  0  0  0  0  0
    4.6037   -0.0085    0.0000 C   0  0  0  0  0  0  0  0  0  0  0  0
  2  3  1  0  0  0  0
  3  4  2  0  0  0  0
  3  5  1  0  0  0  0
  5  6  1  0  0  0  0
  6  7  1  0  0  0  0
  7  8  1  0  0  0  0
  8  9  1  0  0  0  0
  5  9  1  0  0  0  0
  5 10  1  0  0  0  0
 10 11  2  0  0  0  0
 11 12  1  0  0  0  0
 12 13  2  0  0  0  0
 13 14  1  0  0  0  0
 14 15  2  0  0  0  0
 10 15  1  0  0  0  0
M  END
>  <Catalog ID>
Z2111525185

>  <PlateID>
1198308-R-SPFL-08

>  <Well>
D10

>  <MW (desalted)>
191.226

>  <ClogP>
1.379

>  <HBD>
1

>  <TPSA>
50.190

>  <RotBonds>
2

$$$$

            

 12 13  0  0  0  0            999 V2000
    1.4289   -2.4750    0.0000 C   0  0  0  0  0  0  0  0  0  0  0  0
    1.4289   -1.6500    0.0000 C   0  0  0  0  0  0  0  0  0  0  0  0
    0.7145   -1.2375    0.0000 N   0  0  0  0  0  0  0  0  0  0  0  0
    0.7145   -0.4125    0.0000 N   0  0  0  0  0  0  0  0  0  0  0  0
    1.4289    0.0000    0.0000 C   0  0  0  0  0  0  0  0  0  0  0  0
    1.4289    0.8250    0.0000 N   0  0  0  0  0  0  0  0  0  0  0  0
    2.1434   -0.4125    0.0000 C   0  0  0  0  0  0  0  0  0  0  0  0
    2.8579    0.0000    0.0000 C   0  0  0  0  0  0  0  0  0  0  0  0
    3.5724   -0.4125    0.0000 C   0  0  0  0  0  0  0  0  0  0  0  0
    3.5724   -1.2375    0.0000 C   0  0  0  0  0  0  0  0  0  0  0  0
    2.8579   -1.6500    0.0000 C   0  0  0  0  0  0  0  0  0  0  0  0
    2.1434   -1.2375    0.0000 C   0  0  0  0  0  0  0  0  0  0  0  0
  1  2  1  0  0  0  0
  2  3  1  0  0  0  0
  3  4  2  0  0  0  0
  4  5  1  0  0  0  0
  5  6  1  0  0  0  0
  5  7  2  0  0  0  0
  7  8  1  0  0  0  0
  8  9  2  0  0  0  0
  9 10  1  0  0  0  0
 10 11  2  0  0  0  0
 11 12  1  0  0  0  0
  2 12  2  0  0  0  0
  7 12  1  0  0  0  0
M  END
>  <Catalog ID>
Z425847878

>  <PlateID>
1198308-R-SPFL-08

>  <Well>
D11

>  <MW (desalted)>
159.188

>  <ClogP>
1.214

>  <HBD>
1

>  <TPSA>
51.800

>  <RotBonds>
0

$$$$

            

 14 12  0  0  0  0            999 V2000
    0.0000    0.0000    0.0000 Cl  0  0  0  0  0  0  0  0  0  0  0  0
    2.0036    0.0000    0.0000 Cl  0  0  0  0  0  0  0  0  0  0  0  0
    1.5154   -1.6500    0.0000 N   0  0  0  0  0  0  0  0  0  0  0  0
    0.8009   -2.0625    0.0000 C   0  0  0  0  0  0  0  0  0  0  0  0
    0.8009   -2.8875    0.0000 C   0  0  0  0  0  0  0  0  0  0  0  0
    1.4684   -3.3724    0.0000 N   0  0  0  0  0  0  0  0  0  0  0  0
    1.2134   -4.1570    0.0000 C   0  0  0  0  0  0  0  0  0  0  0  0
    0.3884   -4.1570    0.0000 C   0  0  0  0  0  0  0  0  0  0  0  0
    0.1335   -3.3724    0.0000 N   0  0  0  0  0  0  0  0  0  0  0  0
   -0.6511   -3.1175    0.0000 C   0  0  0  0  0  0  0  0  0  0  0  0
   -1.2642   -3.6695    0.0000 C   0  0  0  0  0  0  0  0  0  0  0  0
   -1.8773   -4.2215    0.0000 F   0  0  0  0  0  0  0  0  0  0  0  0
   -1.8162   -3.0564    0.0000 F   0  0  0  0  0  0  0  0  0  0  0  0
   -0.7122   -4.2826    0.0000 F   0  0  0  0  0  0  0  0  0  0  0  0
  3  4  1  0  0  0  0
  4  5  1  0  0  0  0
  5  6  2  0  0  0  0
  6  7  1  0  0  0  0
  7  8  2  0  0  0  0
  8  9  1  0  0  0  0
  5  9  1  0  0  0  0
  9 10  1  0  0  0  0
 10 11  1  0  0  0  0
 11 12  1  0  0  0  0
 11 13  1  0  0  0  0
 11 14  1  0  0  0  0
M  END
>  <Catalog ID>
Z3692356308

>  <PlateID>
1198308-R-SPFL-08

>  <Well>
E02

>  <MW (desalted)>
179.143

>  <ClogP>
-0.768

>  <HBD>
1

>  <TPSA>
43.840

>  <RotBonds>
3

$$$$

            

 12 12  0  0  0  0            999 V2000
    0.0000    3.3000    0.0000 C   0  0  0  0  0  0  0  0  0  0  0  0
    0.7145    2.8875    0.0000 N   0  0  0  0  0  0  0  0  0  0  0  0
    0.7145    2.0625    0.0000 S   0  0  0  0  0  0  0  0  0  0  0  0
   -0.1105    2.0625    0.0000 O   0  0  0  0  0  0  0  0  0  0  0  0
    1.5395    2.0625    0.0000 O   0  0  0  0  0  0  0  0  0  0  0  0
    0.7145    1.2375    0.0000 C   0  0  0  0  0  0  0  0  0  0  0  0
    1.4289    0.8250    0.0000 C   0  0  0  0  0  0  0  0  0  0  0  0
    1.4289   -0.0000    0.0000 C   0  0  0  0  0  0  0  0  0  0  0  0
    0.7145   -0.4125    0.0000 C   0  0  0  0  0  0  0  0  0  0  0  0
    0.0000    0.0000    0.0000 C   0  0  0  0  0  0  0  0  0  0  0  0
   -0.7145   -0.4125    0.0000 F   0  0  0  0  0  0  0  0  0  0  0  0
    0.0000    0.8250    0.0000 C   0  0  0  0  0  0  0  0  0  0  0  0
  1  2  1  0  0  0  0
  2  3  1  0  0  0  0
  3  4  2  0  0  0  0
  3  5  2  0  0  0  0
  3  6  1  0  0  0  0
  6  7  2  0  0  0  0
  7  8  1  0  0  0  0
  8  9  2  0  0  0  0
  9 10  1  0  0  0  0
 10 11  1  0  0  0  0
 10 12  2  0  0  0  0
  6 12  1  0  0  0  0
M  END
>  <Catalog ID>
Z45527664

>  <PlateID>
1198308-R-SPFL-08

>  <Well>
E03

>  <MW (desalted)>
189.207

>  <ClogP>
1.366

>  <HBD>
1

>  <TPSA>
46.170

>  <RotBonds>
1

$$$$

            

 12 13  0  0  0  0            999 V2000
    1.1270    5.2520    0.0000 O   0  0  0  0  0  0  0  0  0  0  0  0
    1.1270    4.4270    0.0000 C   0  0  0  0  0  0  0  0  0  0  0  0
    0.4125    4.0145    0.0000 O   0  0  0  0  0  0  0  0  0  0  0  0
    1.8414    4.0145    0.0000 C   0  0  0  0  0  0  0  0  0  0  0  0
    2.5559    4.4270    0.0000 C   0  0  0  0  0  0  0  0  0  0  0  0
    3.2704    4.0145    0.0000 C   0  0  0  0  0  0  0  0  0  0  0  0
    3.2704    3.1895    0.0000 N   0  0  0  0  0  0  0  0  0  0  0  0
    2.5559    2.7770    0.0000 C   0  0  0  0  0  0  0  0  0  0  0  0
    1.8414    3.1895    0.0000 C   0  0  0  0  0  0  0  0  0  0  0  0
    2.5559    1.9520    0.0000 C   0  0  0  0  0  0  0  0  0  0  0  0
    2.9684    1.2375    0.0000 C   0  0  0  0  0  0  0  0  0  0  0  0
    2.1434    1.2375    0.0000 C   0  0  0  0  0  0  0  0  0  0  0  0
  1  2  1  0  0  0  0
  2  3  2  0  0  0  0
  2  4  1  0  0  0  0
  4  5  2  0  0  0  0
  5  6  1  0  0  0  0
  6  7  2  0  0  0  0
  7  8  1  0  0  0  0
  8  9  2  0  0  0  0
  4  9  1  0  0  0  0
  8 10  1  0  0  0  0
 10 11  1  0  0  0  0
 11 12  1  0  0  0  0
 10 12  1  0  0  0  0
M  END
>  <Catalog ID>
Z1255447694

>  <PlateID>
1198308-R-SPFL-08

>  <Well>
E04

>  <MW (desalted)>
163.173

>  <ClogP>
1.742

>  <HBD>
1

>  <TPSA>
50.190

>  <RotBonds>
2

$$$$

            

 14 15  0  0  0  0            999 V2000
   -0.1781   -3.1062    0.0000 C   0  0  0  0  0  0  0  0  0  0  0  0
    0.0768   -2.3215    0.0000 N   0  0  0  0  0  0  0  0  0  0  0  0
    0.8838   -2.1500    0.0000 C   0  0  0  0  0  0  0  0  0  0  0  0
    1.4358   -2.7631    0.0000 O   0  0  0  0  0  0  0  0  0  0  0  0
    1.1387   -1.3654    0.0000 C   0  0  0  0  0  0  0  0  0  0  0  0
    0.6538   -0.6979    0.0000 C   0  0  0  0  0  0  0  0  0  0  0  0
    1.1387   -0.0305    0.0000 N   0  0  0  0  0  0  0  0  0  0  0  0
    0.8838    0.7541    0.0000 C   0  0  0  0  0  0  0  0  0  0  0  0
    1.9233   -0.2854    0.0000 C   0  0  0  0  0  0  0  0  0  0  0  0
    2.6378    0.1271    0.0000 C   0  0  0  0  0  0  0  0  0  0  0  0
    3.3523   -0.2854    0.0000 C   0  0  0  0  0  0  0  0  0  0  0  0
    3.3523   -1.1104    0.0000 C   0  0  0  0  0  0  0  0  0  0  0  0
    2.6378   -1.5229    0.0000 C   0  0  0  0  0  0  0  0  0  0  0  0
    1.9233   -1.1104    0.0000 C   0  0  0  0  0  0  0  0  0  0  0  0
  1  2  1  0  0  0  0
  2  3  1  0  0  0  0
  3  4  2  0  0  0  0
  3  5  1  0  0  0  0
  5  6  2  0  0  0  0
  6  7  1  0  0  0  0
  7  8  1  0  0  0  0
  7  9  1  0  0  0  0
  9 10  2  0  0  0  0
 10 11  1  0  0  0  0
 11 12  2  0  0  0  0
 12 13  1  0  0  0  0
 13 14  2  0  0  0  0
  5 14  1  0  0  0  0
  9 14  1  0  0  0  0
M  END
>  <Catalog ID>
Z100643660

>  <PlateID>
1198308-R-SPFL-08

>  <Well>
E05

>  <MW (desalted)>
188.226

>  <ClogP>
1.597

>  <HBD>
1

>  <TPSA>
34.030

>  <RotBonds>
1

$$$$

            

 13 12  0  0  0  0            999 V2000
    0.0000    0.0000    0.0000 Cl  0  0  0  0  0  0  0  0  0  0  0  0
    4.0750    2.3240    0.0000 C   0  0  0  0  0  0  0  0  0  0  0  0
    4.0750    1.4990    0.0000 C   0  0  0  0  0  0  0  0  0  0  0  0
    4.7425    1.0141    0.0000 C   0  0  0  0  0  0  0  0  0  0  0  0
    4.4875    0.2295    0.0000 C   0  0  0  0  0  0  0  0  0  0  0  0
    3.6625    0.2295    0.0000 C   0  0  0  0  0  0  0  0  0  0  0  0
    3.4076    1.0141    0.0000 O   0  0  0  0  0  0  0  0  0  0  0  0
    3.1776   -0.4380    0.0000 C   0  0  0  0  0  0  0  0  0  0  0  0
    2.3571   -0.3517    0.0000 N   0  0  0  0  0  0  0  0  0  0  0  0
    3.5132   -1.1917    0.0000 C   0  0  0  0  0  0  0  0  0  0  0  0
    3.8487   -1.9453    0.0000 F   0  0  0  0  0  0  0  0  0  0  0  0
    2.7595   -1.5272    0.0000 F   0  0  0  0  0  0  0  0  0  0  0  0
    4.2669   -0.8561    0.0000 F   0  0  0  0  0  0  0  0  0  0  0  0
  2  3  1  0  0  0  0
  3  4  2  0  0  0  0
  4  5  1  0  0  0  0
  5  6  2  0  0  0  0
  6  7  1  0  0  0  0
  3  7  1  0  0  0  0
  6  8  1  0  0  0  0
  8  9  1  0  0  0  0
  8 10  1  0  0  0  0
 10 11  1  0  0  0  0
 10 12  1  0  0  0  0
 10 13  1  0  0  0  0
M  END
>  <Catalog ID>
Z2471262585

>  <PlateID>
1198308-R-SPFL-08

>  <Well>
E06

>  <MW (desalted)>
179.140

>  <ClogP>
1.542

>  <HBD>
1

>  <TPSA>
39.160

>  <RotBonds>
2

$$$$

            

 13 14  0  0  0  0            999 V2000
   -1.4087   -1.4124    0.0000 O   0  0  0  0  0  0  0  0  0  0  0  0
   -0.5837   -1.4124    0.0000 C   0  0  0  0  0  0  0  0  0  0  0  0
   -0.1712   -2.1269    0.0000 O   0  0  0  0  0  0  0  0  0  0  0  0
   -0.1712   -0.6979    0.0000 C   0  0  0  0  0  0  0  0  0  0  0  0
    0.6538   -0.6979    0.0000 N   0  0  0  0  0  0  0  0  0  0  0  0
    1.1387   -0.0305    0.0000 C   0  0  0  0  0  0  0  0  0  0  0  0
    1.9233   -0.2854    0.0000 C   0  0  0  0  0  0  0  0  0  0  0  0
    2.6378    0.1271    0.0000 C   0  0  0  0  0  0  0  0  0  0  0  0
    3.3523   -0.2854    0.0000 C   0  0  0  0  0  0  0  0  0  0  0  0
    3.3523   -1.1104    0.0000 C   0  0  0  0  0  0  0  0  0  0  0  0
    2.6378   -1.5229    0.0000 C   0  0  0  0  0  0  0  0  0  0  0  0
    1.9233   -1.1104    0.0000 C   0  0  0  0  0  0  0  0  0  0  0  0
    1.1387   -1.3654    0.0000 N   0  0  0  0  0  0  0  0  0  0  0  0
  1  2  1  0  0  0  0
  2  3  2  0  0  0  0
  2  4  1  0  0  0  0
  4  5  1  0  0  0  0
  5  6  1  0  0  0  0
  6  7  2  0  0  0  0
  7  8  1  0  0  0  0
  8  9  2  0  0  0  0
  9 10  1  0  0  0  0
 10 11  2  0  0  0  0
 11 12  1  0  0  0  0
  7 12  1  0  0  0  0
 12 13  2  0  0  0  0
  5 13  1  0  0  0  0
M  END
>  <Catalog ID>
Z1083213968

>  <PlateID>
1198308-R-SPFL-08

>  <Well>
E07

>  <MW (desalted)>
176.172

>  <ClogP>
1.245

>  <HBD>
1

>  <TPSA>
55.120

>  <RotBonds>
2

$$$$

            

 11 12  0  0  0  0            999 V2000
    1.1270   -2.5070    0.0000 C   0  0  0  0  0  0  0  0  0  0  0  0
    0.3020   -2.5070    0.0000 C   0  0  0  0  0  0  0  0  0  0  0  0
    0.0470   -1.7224    0.0000 N   0  0  0  0  0  0  0  0  0  0  0  0
    0.7145   -1.2375    0.0000 C   0  0  0  0  0  0  0  0  0  0  0  0
    1.3819   -1.7224    0.0000 N   0  0  0  0  0  0  0  0  0  0  0  0
    0.7145   -0.4125    0.0000 C   0  0  0  0  0  0  0  0  0  0  0  0
    0.0000    0.0000    0.0000 C   0  0  0  0  0  0  0  0  0  0  0  0
    0.0000    0.8250    0.0000 C   0  0  0  0  0  0  0  0  0  0  0  0
    0.7145    1.2375    0.0000 C   0  0  0  0  0  0  0  0  0  0  0  0
    1.4289    0.8250    0.0000 C   0  0  0  0  0  0  0  0  0  0  0  0
    1.4289   -0.0000    0.0000 N   0  0  0  0  0  0  0  0  0  0  0  0
  1  2  2  0  0  0  0
  2  3  1  0  0  0  0
  3  4  1  0  0  0  0
  4  5  2  0  0  0  0
  1  5  1  0  0  0  0
  4  6  1  0  0  0  0
  6  7  2  0  0  0  0
  7  8  1  0  0  0  0
  8  9  2  0  0  0  0
  9 10  1  0  0  0  0
 10 11  2  0  0  0  0
  6 11  1  0  0  0  0
M  END
>  <Catalog ID>
Z728187802

>  <PlateID>
1198308-R-SPFL-08

>  <Well>
E08

>  <MW (desalted)>
145.161

>  <ClogP>
0.940

>  <HBD>
1

>  <TPSA>
41.570

>  <RotBonds>
1

$$$$

            

 12 13  0  0  0  0            999 V2000
    0.1067    4.7652    0.0000 N   0  0  0  0  0  0  0  0  0  0  0  0
   -0.6078    4.3527    0.0000 C   0  0  0  0  0  0  0  0  0  0  0  0
   -0.6078    3.5277    0.0000 C   0  0  0  0  0  0  0  0  0  0  0  0
   -1.3222    3.1152    0.0000 C   0  0  0  0  0  0  0  0  0  0  0  0
   -2.0367    3.5277    0.0000 N   0  0  0  0  0  0  0  0  0  0  0  0
   -2.0367    4.3527    0.0000 C   0  0  0  0  0  0  0  0  0  0  0  0
   -1.3222    4.7652    0.0000 N   0  0  0  0  0  0  0  0  0  0  0  0
   -1.3222    2.2902    0.0000 C   0  0  0  0  0  0  0  0  0  0  0  0
   -0.6548    1.8053    0.0000 C   0  0  0  0  0  0  0  0  0  0  0  0
   -0.9097    1.0206    0.0000 C   0  0  0  0  0  0  0  0  0  0  0  0
   -1.7347    1.0206    0.0000 C   0  0  0  0  0  0  0  0  0  0  0  0
   -1.9897    1.8053    0.0000 S   0  0  0  0  0  0  0  0  0  0  0  0
  1  2  1  0  0  0  0
  2  3  2  0  0  0  0
  3  4  1  0  0  0  0
  4  5  2  0  0  0  0
  5  6  1  0  0  0  0
  6  7  2  0  0  0  0
  2  7  1  0  0  0  0
  4  8  1  0  0  0  0
  8  9  2  0  0  0  0
  9 10  1  0  0  0  0
 10 11  2  0  0  0  0
 11 12  1  0  0  0  0
  8 12  1  0  0  0  0
M  END
>  <Catalog ID>
Z856211078

>  <PlateID>
1198308-R-SPFL-08

>  <Well>
E09

>  <MW (desalted)>
177.226

>  <ClogP>
1.680

>  <HBD>
1

>  <TPSA>
51.800

>  <RotBonds>
1

$$$$

            

 14 16  0  0  0  0            999 V2000
    2.1434    2.0625    0.0000 O   0  0  0  0  0  0  0  0  0  0  0  0
    2.1434    1.2375    0.0000 C   0  0  0  0  0  0  0  0  0  0  0  0
    2.8579    0.8250    0.0000 N   0  0  0  0  0  0  0  0  0  0  0  0
    3.6425    1.0799    0.0000 C   0  0  0  0  0  0  0  0  0  0  0  0
    4.1274    0.4125    0.0000 C   0  0  0  0  0  0  0  0  0  0  0  0
    3.6425   -0.2549    0.0000 C   0  0  0  0  0  0  0  0  0  0  0  0
    2.8579   -0.0000    0.0000 C   0  0  0  0  0  0  0  0  0  0  0  0
    2.1434   -0.4125    0.0000 N   0  0  0  0  0  0  0  0  0  0  0  0
    1.4289    0.0000    0.0000 C   0  0  0  0  0  0  0  0  0  0  0  0
    0.7145   -0.4125    0.0000 C   0  0  0  0  0  0  0  0  0  0  0  0
   -0.0000    0.0000    0.0000 C   0  0  0  0  0  0  0  0  0  0  0  0
    0.0000    0.8250    0.0000 C   0  0  0  0  0  0  0  0  0  0  0  0
    0.7145    1.2375    0.0000 C   0  0  0  0  0  0  0  0  0  0  0  0
    1.4289    0.8250    0.0000 C   0  0  0  0  0  0  0  0  0  0  0  0
  1  2  2  0  0  0  0
  2  3  1  0  0  0  0
  3  4  1  0  0  0  0
  4  5  1  0  0  0  0
  5  6  1  0  0  0  0
  6  7  1  0  0  0  0
  3  7  1  0  0  0  0
  7  8  1  0  0  0  0
  8  9  1  0  0  0  0
  9 10  2  0  0  0  0
 10 11  1  0  0  0  0
 11 12  2  0  0  0  0
 12 13  1  0  0  0  0
 13 14  2  0  0  0  0
  2 14  1  0  0  0  0
  9 14  1  0  0  0  0
M  END
>  <Catalog ID>
Z1262562997

>  <PlateID>
1198308-R-SPFL-08

>  <Well>
E10

>  <MW (desalted)>
188.226

>  <ClogP>
1.320

>  <HBD>
1

>  <TPSA>
32.340

>  <RotBonds>
0

$$$$

            

 11 11  0  0  0  0            999 V2000
    1.2822    2.3518    0.0000 C   0  0  0  0  0  0  0  0  0  0  0  0
    0.5678    1.9393    0.0000 C   0  0  0  0  0  0  0  0  0  0  0  0
   -0.1467    2.3518    0.0000 C   0  0  0  0  0  0  0  0  0  0  0  0
    0.5678    1.1143    0.0000 C   0  0  0  0  0  0  0  0  0  0  0  0
    1.2352    0.6294    0.0000 N   0  0  0  0  0  0  0  0  0  0  0  0
    0.9803   -0.1553    0.0000 C   0  0  0  0  0  0  0  0  0  0  0  0
    0.1553   -0.1553    0.0000 S   0  0  0  0  0  0  0  0  0  0  0  0
   -0.0997    0.6294    0.0000 C   0  0  0  0  0  0  0  0  0  0  0  0
   -0.8843    0.8843    0.0000 C   0  0  0  0  0  0  0  0  0  0  0  0
   -1.4974    0.3323    0.0000 O   0  0  0  0  0  0  0  0  0  0  0  0
   -1.0558    1.6913    0.0000 O   0  0  0  0  0  0  0  0  0  0  0  0
  1  2  1  0  0  0  0
  2  3  1  0  0  0  0
  2  4  1  0  0  0  0
  4  5  1  0  0  0  0
  5  6  2  0  0  0  0
  6  7  1  0  0  0  0
  7  8  1  0  0  0  0
  4  8  2  0  0  0  0
  8  9  1  0  0  0  0
  9 10  2  0  0  0  0
  9 11  1  0  0  0  0
M  END
>  <Catalog ID>
Z1251355910

>  <PlateID>
1198308-R-SPFL-08

>  <Well>
E11

>  <MW (desalted)>
171.217

>  <ClogP>
0.958

>  <HBD>
1

>  <TPSA>
50.190

>  <RotBonds>
2

$$$$

            

 15 16  0  0  0  0            999 V2000
    0.0768   -2.3215    0.0000 C   0  0  0  0  0  0  0  0  0  0  0  0
    0.8838   -2.1500    0.0000 C   0  0  0  0  0  0  0  0  0  0  0  0
    1.4358   -2.7631    0.0000 C   0  0  0  0  0  0  0  0  0  0  0  0
    1.1387   -1.3654    0.0000 N   0  0  0  0  0  0  0  0  0  0  0  0
    0.6538   -0.6979    0.0000 N   0  0  0  0  0  0  0  0  0  0  0  0
    1.1387   -0.0305    0.0000 C   0  0  0  0  0  0  0  0  0  0  0  0
    1.9233   -0.2854    0.0000 C   0  0  0  0  0  0  0  0  0  0  0  0
    2.6378    0.1271    0.0000 C   0  0  0  0  0  0  0  0  0  0  0  0
    3.3523   -0.2854    0.0000 C   0  0  0  0  0  0  0  0  0  0  0  0
    3.3523   -1.1104    0.0000 C   0  0  0  0  0  0  0  0  0  0  0  0
    2.6378   -1.5229    0.0000 N   0  0  0  0  0  0  0  0  0  0  0  0
    1.9233   -1.1104    0.0000 C   0  0  0  0  0  0  0  0  0  0  0  0
    4.0668    0.1271    0.0000 C   0  0  0  0  0  0  0  0  0  0  0  0
    4.0668    0.9521    0.0000 O   0  0  0  0  0  0  0  0  0  0  0  0
    4.7812   -0.2854    0.0000 N   0  0  0  0  0  0  0  0  0  0  0  0
  1  2  1  0  0  0  0
  2  3  1  0  0  0  0
  2  4  1  0  0  0  0
  4  5  1  0  0  0  0
  5  6  2  0  0  0  0
  6  7  1  0  0  0  0
  7  8  2  0  0  0  0
  8  9  1  0  0  0  0
  9 10  2  0  0  0  0
 10 11  1  0  0  0  0
 11 12  2  0  0  0  0
  4 12  1  0  0  0  0
  7 12  1  0  0  0  0
  9 13  1  0  0  0  0
 13 14  2  0  0  0  0
 13 15  1  0  0  0  0
M  END
>  <Catalog ID>
Z217351236

>  <PlateID>
1198308-R-SPFL-08

>  <Well>
F02

>  <MW (desalted)>
204.228

>  <ClogP>
0.480

>  <HBD>
1

>  <TPSA>
73.800

>  <RotBonds>
2

$$$$

            

 14 15  0  0  0  0            999 V2000
   -0.0000    7.1786    0.0000 O   0  0  0  0  0  0  0  0  0  0  0  0
    0.7145    6.7661    0.0000 C   0  0  0  0  0  0  0  0  0  0  0  0
    1.4289    7.1786    0.0000 O   0  0  0  0  0  0  0  0  0  0  0  0
    0.7145    5.9411    0.0000 C   0  0  0  0  0  0  0  0  0  0  0  0
    1.4289    5.5286    0.0000 C   0  0  0  0  0  0  0  0  0  0  0  0
    1.4289    4.7036    0.0000 C   0  0  0  0  0  0  0  0  0  0  0  0
    0.7145    4.2911    0.0000 C   0  0  0  0  0  0  0  0  0  0  0  0
    0.0000    4.7036    0.0000 C   0  0  0  0  0  0  0  0  0  0  0  0
    0.0000    5.5286    0.0000 C   0  0  0  0  0  0  0  0  0  0  0  0
    0.7145    3.4661    0.0000 C   0  0  0  0  0  0  0  0  0  0  0  0
    1.3819    2.9812    0.0000 C   0  0  0  0  0  0  0  0  0  0  0  0
    1.1270    2.1965    0.0000 N   0  0  0  0  0  0  0  0  0  0  0  0
    0.3020    2.1965    0.0000 C   0  0  0  0  0  0  0  0  0  0  0  0
    0.0470    2.9812    0.0000 O   0  0  0  0  0  0  0  0  0  0  0  0
  1  2  1  0  0  0  0
  2  3  2  0  0  0  0
  2  4  1  0  0  0  0
  4  5  2  0  0  0  0
  5  6  1  0  0  0  0
  6  7  2  0  0  0  0
  7  8  1  0  0  0  0
  8  9  2  0  0  0  0
  4  9  1  0  0  0  0
  7 10  1  0  0  0  0
 10 11  2  0  0  0  0
 11 12  1  0  0  0  0
 12 13  2  0  0  0  0
 13 14  1  0  0  0  0
 10 14  1  0  0  0  0
M  END
>  <Catalog ID>
Z566015354

>  <PlateID>
1198308-R-SPFL-08

>  <Well>
F03

>  <MW (desalted)>
189.167

>  <ClogP>
1.744

>  <HBD>
1

>  <TPSA>
63.330

>  <RotBonds>
2

$$$$

            

 14 15  0  0  0  0            999 V2000
    0.7145   -0.4125    0.0000 Cl  0  0  0  0  0  0  0  0  0  0  0  0
    0.7145   -1.2375    0.0000 C   0  0  0  0  0  0  0  0  0  0  0  0
    1.4289   -1.6500    0.0000 C   0  0  0  0  0  0  0  0  0  0  0  0
    1.4289   -2.4750    0.0000 C   0  0  0  0  0  0  0  0  0  0  0  0
    0.7145   -2.8875    0.0000 C   0  0  0  0  0  0  0  0  0  0  0  0
    0.0000   -2.4750    0.0000 C   0  0  0  0  0  0  0  0  0  0  0  0
    0.0000   -1.6500    0.0000 C   0  0  0  0  0  0  0  0  0  0  0  0
    0.7145   -3.7125    0.0000 C   0  0  0  0  0  0  0  0  0  0  0  0
    1.4289   -4.1250    0.0000 N   0  0  0  0  0  0  0  0  0  0  0  0
    1.4289   -4.9500    0.0000 C   0  0  0  0  0  0  0  0  0  0  0  0
    2.1434   -5.3625    0.0000 O   0  0  0  0  0  0  0  0  0  0  0  0
    0.7145   -5.3625    0.0000 C   0  0  0  0  0  0  0  0  0  0  0  0
    0.0000   -4.9500    0.0000 C   0  0  0  0  0  0  0  0  0  0  0  0
    0.0000   -4.1250    0.0000 N   0  0  0  0  0  0  0  0  0  0  0  0
  1  2  1  0  0  0  0
  2  3  2  0  0  0  0
  3  4  1  0  0  0  0
  4  5  2  0  0  0  0
  5  6  1  0  0  0  0
  6  7  2  0  0  0  0
  2  7  1  0  0  0  0
  5  8  1  0  0  0  0
  8  9  2  0  0  0  0
  9 10  1  0  0  0  0
 10 11  2  0  0  0  0
 10 12  1  0  0  0  0
 12 13  2  0  0  0  0
 13 14  1  0  0  0  0
  8 14  1  0  0  0  0
M  END
>  <Catalog ID>
Z1824401924

>  <PlateID>
1198308-R-SPFL-08

>  <Well>
F04

>  <MW (desalted)>
206.628

>  <ClogP>
2.058

>  <HBD>
1

>  <TPSA>
41.460

>  <RotBonds>
1

$$$$

            

 13 14  0  0  0  0            999 V2000
    0.7145   -2.8875    0.0000 O   0  0  0  0  0  0  0  0  0  0  0  0
    1.4289   -2.4750    0.0000 C   0  0  0  0  0  0  0  0  0  0  0  0
    2.1434   -2.8875    0.0000 O   0  0  0  0  0  0  0  0  0  0  0  0
    1.4289   -1.6500    0.0000 C   0  0  0  0  0  0  0  0  0  0  0  0
    0.7145   -1.2375    0.0000 C   0  0  0  0  0  0  0  0  0  0  0  0
    0.7145   -0.4125    0.0000 C   0  0  0  0  0  0  0  0  0  0  0  0
    1.4289    0.0000    0.0000 N   0  0  0  0  0  0  0  0  0  0  0  0
    2.1434   -0.4125    0.0000 C   0  0  0  0  0  0  0  0  0  0  0  0
    2.8579    0.0000    0.0000 C   0  0  0  0  0  0  0  0  0  0  0  0
    3.5724   -0.4125    0.0000 C   0  0  0  0  0  0  0  0  0  0  0  0
    3.5724   -1.2375    0.0000 C   0  0  0  0  0  0  0  0  0  0  0  0
    2.8579   -1.6500    0.0000 C   0  0  0  0  0  0  0  0  0  0  0  0
    2.1434   -1.2375    0.0000 C   0  0  0  0  0  0  0  0  0  0  0  0
  1  2  1  0  0  0  0
  2  3  2  0  0  0  0
  2  4  1  0  0  0  0
  4  5  2  0  0  0  0
  5  6  1  0  0  0  0
  6  7  2  0  0  0  0
  7  8  1  0  0  0  0
  8  9  2  0  0  0  0
  9 10  1  0  0  0  0
 10 11  2  0  0  0  0
 11 12  1  0  0  0  0
 12 13  2  0  0  0  0
  4 13  1  0  0  0  0
  8 13  1  0  0  0  0
M  END
>  <Catalog ID>
Z104509698

>  <PlateID>
1198308-R-SPFL-08

>  <Well>
F05

>  <MW (desalted)>
173.168

>  <ClogP>
2.183

>  <HBD>
1

>  <TPSA>
50.190

>  <RotBonds>
1

$$$$

            

 14 14  0  0  0  0            999 V2000
    0.0000    0.0000    0.0000 Cl  0  0  0  0  0  0  0  0  0  0  0  0
    2.3571    0.3638    0.0000 N   0  0  0  0  0  0  0  0  0  0  0  0
    3.0716   -0.0487    0.0000 C   0  0  0  0  0  0  0  0  0  0  0  0
    3.7861    0.3638    0.0000 C   0  0  0  0  0  0  0  0  0  0  0  0
    3.7861    1.1888    0.0000 C   0  0  0  0  0  0  0  0  0  0  0  0
    4.5006    1.6013    0.0000 C   0  0  0  0  0  0  0  0  0  0  0  0
    5.2150    1.1888    0.0000 C   0  0  0  0  0  0  0  0  0  0  0  0
    5.2150    0.3638    0.0000 C   0  0  0  0  0  0  0  0  0  0  0  0
    5.9295   -0.0487    0.0000 O   0  0  0  0  0  0  0  0  0  0  0  0
    5.9295   -0.8737    0.0000 C   0  0  0  0  0  0  0  0  0  0  0  0
    6.3420   -1.5882    0.0000 C   0  0  0  0  0  0  0  0  0  0  0  0
    5.5170   -1.5882    0.0000 C   0  0  0  0  0  0  0  0  0  0  0  0
    4.5006   -0.0487    0.0000 C   0  0  0  0  0  0  0  0  0  0  0  0
    4.5006   -0.8737    0.0000 F   0  0  0  0  0  0  0  0  0  0  0  0
  2  3  1  0  0  0  0
  3  4  1  0  0  0  0
  4  5  2  0  0  0  0
  5  6  1  0  0  0  0
  6  7  2  0  0  0  0
  7  8  1  0  0  0  0
  8  9  1  0  0  0  0
  9 10  1  0  0  0  0
 10 11  1  0  0  0  0
 11 12  1  0  0  0  0
 10 12  1  0  0  0  0
  8 13  2  0  0  0  0
  4 13  1  0  0  0  0
 13 14  1  0  0  0  0
M  END
>  <Catalog ID>
Z2517204655

>  <PlateID>
1198308-R-SPFL-08

>  <Well>
F06

>  <MW (desalted)>
181.207

>  <ClogP>
1.680

>  <HBD>
1

>  <TPSA>
35.250

>  <RotBonds>
3

$$$$

            

 16 16  0  0  0  0            999 V2000
    0.0000    0.0000    0.0000 Cl  0  0  0  0  0  0  0  0  0  0  0  0
    5.9590    2.0864    0.0000 C   0  0  0  0  0  0  0  0  0  0  0  0
    5.2446    1.6739    0.0000 C   0  0  0  0  0  0  0  0  0  0  0  0
    4.5301    2.0864    0.0000 N   0  0  0  0  0  0  0  0  0  0  0  0
    5.2446    0.8489    0.0000 C   0  0  0  0  0  0  0  0  0  0  0  0
    5.9120    0.3639    0.0000 N   0  0  0  0  0  0  0  0  0  0  0  0
    5.6571   -0.4207    0.0000 O   0  0  0  0  0  0  0  0  0  0  0  0
    4.8321   -0.4207    0.0000 C   0  0  0  0  0  0  0  0  0  0  0  0
    4.3472   -1.0881    0.0000 C   0  0  0  0  0  0  0  0  0  0  0  0
    3.5267   -1.0019    0.0000 C   0  0  0  0  0  0  0  0  0  0  0  0
    3.0418   -1.6693    0.0000 C   0  0  0  0  0  0  0  0  0  0  0  0
    2.2213   -1.5831    0.0000 C   0  0  0  0  0  0  0  0  0  0  0  0
    1.8857   -0.8294    0.0000 C   0  0  0  0  0  0  0  0  0  0  0  0
    2.3706   -0.1620    0.0000 C   0  0  0  0  0  0  0  0  0  0  0  0
    3.1911   -0.2482    0.0000 C   0  0  0  0  0  0  0  0  0  0  0  0
    4.5771    0.3639    0.0000 N   0  0  0  0  0  0  0  0  0  0  0  0
  2  3  1  0  0  0  0
  3  4  1  0  0  0  0
  3  5  1  0  0  0  0
  5  6  2  0  0  0  0
  6  7  1  0  0  0  0
  7  8  1  0  0  0  0
  8  9  1  0  0  0  0
  9 10  1  0  0  0  0
 10 11  2  0  0  0  0
 11 12  1  0  0  0  0
 12 13  2  0  0  0  0
 13 14  1  0  0  0  0
 14 15  2  0  0  0  0
 10 15  1  0  0  0  0
  8 16  2  0  0  0  0
  5 16  1  0  0  0  0
M  END
>  <Catalog ID>
Z1354416064

>  <PlateID>
1198308-R-SPFL-08

>  <Well>
F07

>  <MW (desalted)>
203.240

>  <ClogP>
0.592

>  <HBD>
1

>  <TPSA>
64.940

>  <RotBonds>
3

$$$$

            

 14 15  0  0  0  0            999 V2000
    1.0483    7.1486    0.0000 O   0  0  0  0  0  0  0  0  0  0  0  0
    0.6904    6.4053    0.0000 C   0  0  0  0  0  0  0  0  0  0  0  0
    1.2047    5.7603    0.0000 C   0  0  0  0  0  0  0  0  0  0  0  0
    1.0212    4.9560    0.0000 C   0  0  0  0  0  0  0  0  0  0  0  0
    0.2779    4.5980    0.0000 C   0  0  0  0  0  0  0  0  0  0  0  0
   -0.4654    4.9560    0.0000 C   0  0  0  0  0  0  0  0  0  0  0  0
   -0.6490    5.7603    0.0000 C   0  0  0  0  0  0  0  0  0  0  0  0
   -0.1346    6.4053    0.0000 N   0  0  0  0  0  0  0  0  0  0  0  0
    0.2779    3.7730    0.0000 C   0  0  0  0  0  0  0  0  0  0  0  0
    0.9923    3.3605    0.0000 C   0  0  0  0  0  0  0  0  0  0  0  0
    0.9923    2.5355    0.0000 C   0  0  0  0  0  0  0  0  0  0  0  0
    0.2779    2.1230    0.0000 C   0  0  0  0  0  0  0  0  0  0  0  0
   -0.4366    2.5355    0.0000 C   0  0  0  0  0  0  0  0  0  0  0  0
   -0.4366    3.3605    0.0000 C   0  0  0  0  0  0  0  0  0  0  0  0
  1  2  2  0  0  0  0
  2  3  1  0  0  0  0
  3  4  1  0  0  0  0
  4  5  1  0  0  0  0
  5  6  1  0  0  0  0
  6  7  1  0  0  0  0
  7  8  1  0  0  0  0
  2  8  1  0  0  0  0
  5  9  1  0  0  0  0
  9 10  2  0  0  0  0
 10 11  1  0  0  0  0
 11 12  2  0  0  0  0
 12 13  1  0  0  0  0
 13 14  2  0  0  0  0
  9 14  1  0  0  0  0
M  END
>  <Catalog ID>
Z425362292

>  <PlateID>
1198308-R-SPFL-08

>  <Well>
F08

>  <MW (desalted)>
189.254

>  <ClogP>
1.553

>  <HBD>
1

>  <TPSA>
29.100

>  <RotBonds>
1

$$$$

            

 13 14  0  0  0  0            999 V2000
   -0.8212    6.0027    0.0000 O   0  0  0  0  0  0  0  0  0  0  0  0
   -0.1067    5.5902    0.0000 C   0  0  0  0  0  0  0  0  0  0  0  0
    0.6078    6.0027    0.0000 C   0  0  0  0  0  0  0  0  0  0  0  0
    1.3222    5.5902    0.0000 C   0  0  0  0  0  0  0  0  0  0  0  0
    1.3222    4.7652    0.0000 N   0  0  0  0  0  0  0  0  0  0  0  0
    2.0367    4.3527    0.0000 C   0  0  0  0  0  0  0  0  0  0  0  0
    2.0367    3.5277    0.0000 C   0  0  0  0  0  0  0  0  0  0  0  0
    2.7041    3.0428    0.0000 C   0  0  0  0  0  0  0  0  0  0  0  0
    2.4492    2.2581    0.0000 C   0  0  0  0  0  0  0  0  0  0  0  0
    1.6242    2.2581    0.0000 S   0  0  0  0  0  0  0  0  0  0  0  0
    1.3693    3.0428    0.0000 C   0  0  0  0  0  0  0  0  0  0  0  0
    0.6078    4.3527    0.0000 C   0  0  0  0  0  0  0  0  0  0  0  0
   -0.1067    4.7652    0.0000 C   0  0  0  0  0  0  0  0  0  0  0  0
  1  2  1  0  0  0  0
  2  3  1  0  0  0  0
  3  4  1  0  0  0  0
  4  5  1  0  0  0  0
  5  6  1  0  0  0  0
  6  7  1  0  0  0  0
  7  8  1  0  0  0  0
  8  9  2  0  0  0  0
  9 10  1  0  0  0  0
 10 11  1  0  0  0  0
  7 11  2  0  0  0  0
  5 12  1  0  0  0  0
 12 13  1  0  0  0  0
  2 13  1  0  0  0  0
M  END
>  <Catalog ID>
Z905434478

>  <PlateID>
1198308-R-SPFL-08

>  <Well>
F09

>  <MW (desalted)>
197.297

>  <ClogP>
0.728

>  <HBD>
1

>  <TPSA>
23.470

>  <RotBonds>
2

$$$$

            

 12 12  0  0  0  0            999 V2000
    0.0000    0.0000    0.0000 Cl  0  0  0  0  0  0  0  0  0  0  0  0
    5.2987    1.4250    0.0000 N   0  0  0  0  0  0  0  0  0  0  0  0
    5.2987    0.6000    0.0000 C   0  0  0  0  0  0  0  0  0  0  0  0
    4.5842    0.1875    0.0000 C   0  0  0  0  0  0  0  0  0  0  0  0
    4.5842   -0.6375    0.0000 C   0  0  0  0  0  0  0  0  0  0  0  0
    3.8697   -1.0500    0.0000 C   0  0  0  0  0  0  0  0  0  0  0  0
    3.1553   -0.6375    0.0000 C   0  0  0  0  0  0  0  0  0  0  0  0
    2.3706   -0.8924    0.0000 S   0  0  0  0  0  0  0  0  0  0  0  0
    1.8857   -0.2250    0.0000 C   0  0  0  0  0  0  0  0  0  0  0  0
    2.3706    0.4424    0.0000 C   0  0  0  0  0  0  0  0  0  0  0  0
    3.1553    0.1875    0.0000 C   0  0  0  0  0  0  0  0  0  0  0  0
    3.8697    0.6000    0.0000 C   0  0  0  0  0  0  0  0  0  0  0  0
  2  3  1  0  0  0  0
  3  4  1  0  0  0  0
  4  5  2  0  0  0  0
  5  6  1  0  0  0  0
  6  7  2  0  0  0  0
  7  8  1  0  0  0  0
  8  9  1  0  0  0  0
  9 10  2  0  0  0  0
 10 11  1  0  0  0  0
  7 11  1  0  0  0  0
 11 12  2  0  0  0  0
  4 12  1  0  0  0  0
M  END
>  <Catalog ID>
Z1198323676

>  <PlateID>
1198308-R-SPFL-08

>  <Well>
F10

>  <MW (desalted)>
163.239

>  <ClogP>
2.124

>  <HBD>
1

>  <TPSA>
26.020

>  <RotBonds>
1

$$$$

            

 15 16  0  0  0  0            999 V2000
    2.1434   -0.4125    0.0000 C   0  0  0  0  0  0  0  0  0  0  0  0
    2.1434   -1.2375    0.0000 C   0  0  0  0  0  0  0  0  0  0  0  0
    2.8579   -1.6500    0.0000 C   0  0  0  0  0  0  0  0  0  0  0  0
    2.8579   -2.4750    0.0000 C   0  0  0  0  0  0  0  0  0  0  0  0
    2.1434   -2.8875    0.0000 N   0  0  0  0  0  0  0  0  0  0  0  0
    2.1434   -3.7125    0.0000 C   0  0  0  0  0  0  0  0  0  0  0  0
    1.4289   -4.1250    0.0000 C   0  0  0  0  0  0  0  0  0  0  0  0
    1.4289   -4.9500    0.0000 C   0  0  0  0  0  0  0  0  0  0  0  0
    0.7145   -5.3625    0.0000 C   0  0  0  0  0  0  0  0  0  0  0  0
   -0.0000   -4.9500    0.0000 C   0  0  0  0  0  0  0  0  0  0  0  0
    0.0000   -4.1250    0.0000 N   0  0  0  0  0  0  0  0  0  0  0  0
    0.7145   -3.7125    0.0000 C   0  0  0  0  0  0  0  0  0  0  0  0
    1.4289   -2.4750    0.0000 C   0  0  0  0  0  0  0  0  0  0  0  0
    0.7145   -2.8875    0.0000 O   0  0  0  0  0  0  0  0  0  0  0  0
    1.4289   -1.6500    0.0000 C   0  0  0  0  0  0  0  0  0  0  0  0
  1  2  1  0  0  0  0
  2  3  1  0  0  0  0
  3  4  2  0  0  0  0
  4  5  1  0  0  0  0
  5  6  1  0  0  0  0
  6  7  1  0  0  0  0
  7  8  2  0  0  0  0
  8  9  1  0  0  0  0
  9 10  2  0  0  0  0
 10 11  1  0  0  0  0
 11 12  2  0  0  0  0
  7 12  1  0  0  0  0
  5 13  1  0  0  0  0
 13 14  2  0  0  0  0
 13 15  1  0  0  0  0
  2 15  2  0  0  0  0
M  END
>  <Catalog ID>
Z1721718698

>  <PlateID>
1198308-R-SPFL-08

>  <Well>
F11

>  <MW (desalted)>
200.236

>  <ClogP>
0.684

>  <HBD>
0

>  <TPSA>
33.200

>  <RotBonds>
2

$$$$

            

 16 17  0  0  0  0            999 V2000
    0.0000    0.8250    0.0000 C   0  0  0  0  0  0  0  0  0  0  0  0
    0.0000    0.0000    0.0000 C   0  0  0  0  0  0  0  0  0  0  0  0
    0.7145   -0.4125    0.0000 O   0  0  0  0  0  0  0  0  0  0  0  0
    0.7145   -1.2375    0.0000 C   0  0  0  0  0  0  0  0  0  0  0  0
    1.4289   -1.6500    0.0000 C   0  0  0  0  0  0  0  0  0  0  0  0
    1.4289   -2.4750    0.0000 C   0  0  0  0  0  0  0  0  0  0  0  0
    0.7145   -2.8875    0.0000 C   0  0  0  0  0  0  0  0  0  0  0  0
    0.0000   -2.4750    0.0000 C   0  0  0  0  0  0  0  0  0  0  0  0
    0.0000   -1.6500    0.0000 C   0  0  0  0  0  0  0  0  0  0  0  0
    0.7145   -3.7125    0.0000 C   0  0  0  0  0  0  0  0  0  0  0  0
    1.4289   -4.1250    0.0000 N   0  0  0  0  0  0  0  0  0  0  0  0
    1.4289   -4.9500    0.0000 N   0  0  0  0  0  0  0  0  0  0  0  0
    0.7145   -5.3625    0.0000 C   0  0  0  0  0  0  0  0  0  0  0  0
    0.7145   -6.1875    0.0000 O   0  0  0  0  0  0  0  0  0  0  0  0
    0.0000   -4.9500    0.0000 C   0  0  0  0  0  0  0  0  0  0  0  0
    0.0000   -4.1250    0.0000 C   0  0  0  0  0  0  0  0  0  0  0  0
  1  2  1  0  0  0  0
  2  3  1  0  0  0  0
  3  4  1  0  0  0  0
  4  5  2  0  0  0  0
  5  6  1  0  0  0  0
  6  7  2  0  0  0  0
  7  8  1  0  0  0  0
  8  9  2  0  0  0  0
  4  9  1  0  0  0  0
  7 10  1  0  0  0  0
 10 11  2  0  0  0  0
 11 12  1  0  0  0  0
 12 13  1  0  0  0  0
 13 14  2  0  0  0  0
 13 15  1  0  0  0  0
 15 16  1  0  0  0  0
 10 16  1  0  0  0  0
M  END
>  <Catalog ID>
Z49527507

>  <PlateID>
1198308-R-SPFL-08

>  <Well>
G02

>  <MW (desalted)>
218.252

>  <ClogP>
1.291

>  <HBD>
1

>  <TPSA>
50.690

>  <RotBonds>
3

$$$$

            

 12 13  0  0  0  0            999 V2000
    0.7145   -2.8875    0.0000 O   0  0  0  0  0  0  0  0  0  0  0  0
    1.4289   -2.4750    0.0000 C   0  0  0  0  0  0  0  0  0  0  0  0
    1.4289   -1.6500    0.0000 C   0  0  0  0  0  0  0  0  0  0  0  0
    0.7145   -1.2375    0.0000 C   0  0  0  0  0  0  0  0  0  0  0  0
    0.7145   -0.4125    0.0000 C   0  0  0  0  0  0  0  0  0  0  0  0
    1.4289    0.0000    0.0000 C   0  0  0  0  0  0  0  0  0  0  0  0
    2.1434   -0.4125    0.0000 C   0  0  0  0  0  0  0  0  0  0  0  0
    2.8579    0.0000    0.0000 O   0  0  0  0  0  0  0  0  0  0  0  0
    3.5724   -0.4125    0.0000 C   0  0  0  0  0  0  0  0  0  0  0  0
    3.5724   -1.2375    0.0000 C   0  0  0  0  0  0  0  0  0  0  0  0
    2.8579   -1.6500    0.0000 O   0  0  0  0  0  0  0  0  0  0  0  0
    2.1434   -1.2375    0.0000 C   0  0  0  0  0  0  0  0  0  0  0  0
  1  2  1  0  0  0  0
  2  3  1  0  0  0  0
  3  4  2  0  0  0  0
  4  5  1  0  0  0  0
  5  6  2  0  0  0  0
  6  7  1  0  0  0  0
  7  8  1  0  0  0  0
  8  9  1  0  0  0  0
  9 10  1  0  0  0  0
 10 11  1  0  0  0  0
 11 12  1  0  0  0  0
  3 12  1  0  0  0  0
  7 12  2  0  0  0  0
M  END
>  <Catalog ID>
Z440625162

>  <PlateID>
1198308-R-SPFL-08

>  <Well>
G03

>  <MW (desalted)>
166.174

>  <ClogP>
1.028

>  <HBD>
1

>  <TPSA>
38.690

>  <RotBonds>
1

$$$$

            

 13 14  0  0  0  0            999 V2000
    0.7145   -0.4125    0.0000 O   0  0  0  0  0  0  0  0  0  0  0  0
    0.7145   -1.2375    0.0000 C   0  0  0  0  0  0  0  0  0  0  0  0
    1.4289   -1.6500    0.0000 N   0  0  0  0  0  0  0  0  0  0  0  0
    1.4289   -2.4750    0.0000 C   0  0  0  0  0  0  0  0  0  0  0  0
    0.7145   -2.8875    0.0000 C   0  0  0  0  0  0  0  0  0  0  0  0
    0.0000   -2.4750    0.0000 C   0  0  0  0  0  0  0  0  0  0  0  0
    0.0000   -1.6500    0.0000 N   0  0  0  0  0  0  0  0  0  0  0  0
    2.1434   -2.8875    0.0000 C   0  0  0  0  0  0  0  0  0  0  0  0
    2.8579   -2.4750    0.0000 C   0  0  0  0  0  0  0  0  0  0  0  0
    3.5724   -2.8875    0.0000 C   0  0  0  0  0  0  0  0  0  0  0  0
    3.5724   -3.7125    0.0000 C   0  0  0  0  0  0  0  0  0  0  0  0
    2.8579   -4.1250    0.0000 C   0  0  0  0  0  0  0  0  0  0  0  0
    2.1434   -3.7125    0.0000 C   0  0  0  0  0  0  0  0  0  0  0  0
  1  2  2  0  0  0  0
  2  3  1  0  0  0  0
  3  4  2  0  0  0  0
  4  5  1  0  0  0  0
  5  6  2  0  0  0  0
  6  7  1  0  0  0  0
  2  7  1  0  0  0  0
  4  8  1  0  0  0  0
  8  9  2  0  0  0  0
  9 10  1  0  0  0  0
 10 11  2  0  0  0  0
 11 12  1  0  0  0  0
 12 13  2  0  0  0  0
  8 13  1  0  0  0  0
M  END
>  <Catalog ID>
Z1888397838

>  <PlateID>
1198308-R-SPFL-08

>  <Well>
G04

>  <MW (desalted)>
172.183

>  <ClogP>
0.479

>  <HBD>
1

>  <TPSA>
41.460

>  <RotBonds>
1

$$$$

            

 15 16  0  0  0  0            999 V2000
    5.4957    2.3479    0.0000 C   0  0  0  0  0  0  0  0  0  0  0  0
    4.7812    2.7604    0.0000 C   0  0  0  0  0  0  0  0  0  0  0  0
    4.0668    2.3479    0.0000 S   0  0  0  0  0  0  0  0  0  0  0  0
    3.6543    3.0624    0.0000 O   0  0  0  0  0  0  0  0  0  0  0  0
    4.4793    1.6335    0.0000 O   0  0  0  0  0  0  0  0  0  0  0  0
    3.3523    1.9354    0.0000 C   0  0  0  0  0  0  0  0  0  0  0  0
    3.3523    1.1104    0.0000 C   0  0  0  0  0  0  0  0  0  0  0  0
    2.6378    0.6979    0.0000 C   0  0  0  0  0  0  0  0  0  0  0  0
    1.9233    1.1104    0.0000 C   0  0  0  0  0  0  0  0  0  0  0  0
    1.1387    0.8555    0.0000 O   0  0  0  0  0  0  0  0  0  0  0  0
    0.6538    1.5229    0.0000 C   0  0  0  0  0  0  0  0  0  0  0  0
   -0.1712    1.5229    0.0000 C   0  0  0  0  0  0  0  0  0  0  0  0
    1.1387    2.1904    0.0000 N   0  0  0  0  0  0  0  0  0  0  0  0
    1.9233    1.9354    0.0000 C   0  0  0  0  0  0  0  0  0  0  0  0
    2.6378    2.3479    0.0000 C   0  0  0  0  0  0  0  0  0  0  0  0
  1  2  1  0  0  0  0
  2  3  1  0  0  0  0
  3  4  2  0  0  0  0
  3  5  2  0  0  0  0
  3  6  1  0  0  0  0
  6  7  2  0  0  0  0
  7  8  1  0  0  0  0
  8  9  2  0  0  0  0
  9 10  1  0  0  0  0
 10 11  1  0  0  0  0
 11 12  1  0  0  0  0
 11 13  2  0  0  0  0
 13 14  1  0  0  0  0
  9 14  1  0  0  0  0
 14 15  2  0  0  0  0
  6 15  1  0  0  0  0
M  END
>  <Catalog ID>
Z94602022

>  <PlateID>
1198308-R-SPFL-08

>  <Well>
G05

>  <MW (desalted)>
225.264

>  <ClogP>
1.033

>  <HBD>
0

>  <TPSA>
60.170

>  <RotBonds>
2

$$$$

            

 13 13  0  0  0  0            999 V2000
    0.0000    0.0000    0.0000 Cl  0  0  0  0  0  0  0  0  0  0  0  0
    2.3571   -1.9512    0.0000 N   0  0  0  0  0  0  0  0  0  0  0  0
    2.6121   -1.1666    0.0000 C   0  0  0  0  0  0  0  0  0  0  0  0
    3.4191   -0.9951    0.0000 C   0  0  0  0  0  0  0  0  0  0  0  0
    3.6740   -0.2105    0.0000 C   0  0  0  0  0  0  0  0  0  0  0  0
    3.1891    0.4570    0.0000 N   0  0  0  0  0  0  0  0  0  0  0  0
    3.6740    1.1244    0.0000 O   0  0  0  0  0  0  0  0  0  0  0  0
    4.4586    0.8695    0.0000 C   0  0  0  0  0  0  0  0  0  0  0  0
    5.1731    1.2820    0.0000 C   0  0  0  0  0  0  0  0  0  0  0  0
    5.8876    0.8695    0.0000 C   0  0  0  0  0  0  0  0  0  0  0  0
    5.8876    0.0445    0.0000 C   0  0  0  0  0  0  0  0  0  0  0  0
    5.1731   -0.3680    0.0000 C   0  0  0  0  0  0  0  0  0  0  0  0
    4.4586    0.0445    0.0000 C   0  0  0  0  0  0  0  0  0  0  0  0
  2  3  1  0  0  0  0
  3  4  1  0  0  0  0
  4  5  1  0  0  0  0
  5  6  2  0  0  0  0
  6  7  1  0  0  0  0
  7  8  1  0  0  0  0
  8  9  2  0  0  0  0
  9 10  1  0  0  0  0
 10 11  2  0  0  0  0
 11 12  1  0  0  0  0
 12 13  2  0  0  0  0
  5 13  1  0  0  0  0
  8 13  1  0  0  0  0
M  END
>  <Catalog ID>
Z2492774449

>  <PlateID>
1198308-R-SPFL-08

>  <Well>
G06

>  <MW (desalted)>
162.189

>  <ClogP>
0.566

>  <HBD>
1

>  <TPSA>
52.050

>  <RotBonds>
2

$$$$

            

 11 12  0  0  0  0            999 V2000
    4.0668    2.3479    0.0000 C   0  0  0  0  0  0  0  0  0  0  0  0
    3.3523    1.9354    0.0000 C   0  0  0  0  0  0  0  0  0  0  0  0
    3.3523    1.1104    0.0000 C   0  0  0  0  0  0  0  0  0  0  0  0
    2.6378    0.6979    0.0000 C   0  0  0  0  0  0  0  0  0  0  0  0
    1.9233    1.1104    0.0000 N   0  0  0  0  0  0  0  0  0  0  0  0
    1.1387    0.8555    0.0000 C   0  0  0  0  0  0  0  0  0  0  0  0
    0.8838    0.0709    0.0000 N   0  0  0  0  0  0  0  0  0  0  0  0
    0.6538    1.5229    0.0000 N   0  0  0  0  0  0  0  0  0  0  0  0
    1.1387    2.1904    0.0000 N   0  0  0  0  0  0  0  0  0  0  0  0
    1.9233    1.9354    0.0000 C   0  0  0  0  0  0  0  0  0  0  0  0
    2.6378    2.3479    0.0000 C   0  0  0  0  0  0  0  0  0  0  0  0
  1  2  1  0  0  0  0
  2  3  1  0  0  0  0
  3  4  2  0  0  0  0
  4  5  1  0  0  0  0
  5  6  1  0  0  0  0
  6  7  1  0  0  0  0
  6  8  2  0  0  0  0
  8  9  1  0  0  0  0
  9 10  2  0  0  0  0
  5 10  1  0  0  0  0
 10 11  1  0  0  0  0
  2 11  2  0  0  0  0
M  END
>  <Catalog ID>
Z1203583566

>  <PlateID>
1198308-R-SPFL-08

>  <Well>
G07

>  <MW (desalted)>
148.165

>  <ClogP>
0.826

>  <HBD>
1

>  <TPSA>
56.210

>  <RotBonds>
0

$$$$

            

 12 13  0  0  0  0            999 V2000
    1.1188    1.9438    0.0000 C   0  0  0  0  0  0  0  0  0  0  0  0
    1.9034    2.1987    0.0000 N   0  0  0  0  0  0  0  0  0  0  0  0
    2.1584    2.9834    0.0000 N   0  0  0  0  0  0  0  0  0  0  0  0
    2.9834    2.9834    0.0000 C   0  0  0  0  0  0  0  0  0  0  0  0
    3.2383    2.1987    0.0000 C   0  0  0  0  0  0  0  0  0  0  0  0
    4.0229    1.9438    0.0000 C   0  0  0  0  0  0  0  0  0  0  0  0
    4.6360    2.4958    0.0000 O   0  0  0  0  0  0  0  0  0  0  0  0
    4.1944    1.1368    0.0000 O   0  0  0  0  0  0  0  0  0  0  0  0
    2.5709    1.7138    0.0000 C   0  0  0  0  0  0  0  0  0  0  0  0
    2.5709    0.8888    0.0000 C   0  0  0  0  0  0  0  0  0  0  0  0
    2.9834    0.1743    0.0000 C   0  0  0  0  0  0  0  0  0  0  0  0
    2.1584    0.1743    0.0000 C   0  0  0  0  0  0  0  0  0  0  0  0
  1  2  1  0  0  0  0
  2  3  1  0  0  0  0
  3  4  2  0  0  0  0
  4  5  1  0  0  0  0
  5  6  1  0  0  0  0
  6  7  2  0  0  0  0
  6  8  1  0  0  0  0
  5  9  2  0  0  0  0
  2  9  1  0  0  0  0
  9 10  1  0  0  0  0
 10 11  1  0  0  0  0
 11 12  1  0  0  0  0
 10 12  1  0  0  0  0
M  END
>  <Catalog ID>
Z359317788

>  <PlateID>
1198308-R-SPFL-08

>  <Well>
G08

>  <MW (desalted)>
166.177

>  <ClogP>
-0.126

>  <HBD>
1

>  <TPSA>
55.120

>  <RotBonds>
2

$$$$

            

 12 10  0  0  0  0            999 V2000
    0.0000    0.0000    0.0000 Cl  0  0  0  0  0  0  0  0  0  0  0  0
    2.0036    0.0000    0.0000 Cl  0  0  0  0  0  0  0  0  0  0  0  0
   -0.4287   -1.6500    0.0000 C   0  0  0  0  0  0  0  0  0  0  0  0
   -0.4287   -2.4750    0.0000 N   0  0  0  0  0  0  0  0  0  0  0  0
    0.2858   -2.8875    0.0000 C   0  0  0  0  0  0  0  0  0  0  0  0
    0.2858   -3.7125    0.0000 C   0  0  0  0  0  0  0  0  0  0  0  0
    1.0003   -4.1250    0.0000 C   0  0  0  0  0  0  0  0  0  0  0  0
    1.0003   -4.9500    0.0000 C   0  0  0  0  0  0  0  0  0  0  0  0
    0.2858   -5.3625    0.0000 C   0  0  0  0  0  0  0  0  0  0  0  0
   -0.4287   -4.9500    0.0000 C   0  0  0  0  0  0  0  0  0  0  0  0
   -1.1432   -5.3625    0.0000 C   0  0  0  0  0  0  0  0  0  0  0  0
   -0.4287   -4.1250    0.0000 N   0  0  0  0  0  0  0  0  0  0  0  0
  3  4  1  0  0  0  0
  4  5  1  0  0  0  0
  5  6  1  0  0  0  0
  6  7  2  0  0  0  0
  7  8  1  0  0  0  0
  8  9  2  0  0  0  0
  9 10  1  0  0  0  0
 10 11  1  0  0  0  0
 10 12  2  0  0  0  0
  6 12  1  0  0  0  0
M  END
>  <Catalog ID>
Z1255523287

>  <PlateID>
1198308-R-SPFL-08

>  <Well>
G09

>  <MW (desalted)>
136.194

>  <ClogP>
0.512

>  <HBD>
1

>  <TPSA>
24.920

>  <RotBonds>
2

$$$$

            

 12 13  0  0  0  0            999 V2000
    2.0367   -0.4741    0.0000 C   0  0  0  0  0  0  0  0  0  0  0  0
    2.0367   -1.2991    0.0000 C   0  0  0  0  0  0  0  0  0  0  0  0
    2.7041   -1.7840    0.0000 C   0  0  0  0  0  0  0  0  0  0  0  0
    2.4492   -2.5687    0.0000 N   0  0  0  0  0  0  0  0  0  0  0  0
    1.6242   -2.5687    0.0000 C   0  0  0  0  0  0  0  0  0  0  0  0
    1.3693   -1.7840    0.0000 N   0  0  0  0  0  0  0  0  0  0  0  0
    2.7512   -0.0616    0.0000 C   0  0  0  0  0  0  0  0  0  0  0  0
    2.7512    0.7634    0.0000 C   0  0  0  0  0  0  0  0  0  0  0  0
    3.4656    1.1759    0.0000 C   0  0  0  0  0  0  0  0  0  0  0  0
    4.1801    0.7634    0.0000 C   0  0  0  0  0  0  0  0  0  0  0  0
    4.1801   -0.0616    0.0000 C   0  0  0  0  0  0  0  0  0  0  0  0
    3.4656   -0.4741    0.0000 C   0  0  0  0  0  0  0  0  0  0  0  0
  1  2  1  0  0  0  0
  2  3  2  0  0  0  0
  3  4  1  0  0  0  0
  4  5  1  0  0  0  0
  5  6  2  0  0  0  0
  2  6  1  0  0  0  0
  1  7  1  0  0  0  0
  7  8  2  0  0  0  0
  8  9  1  0  0  0  0
  9 10  2  0  0  0  0
 10 11  1  0  0  0  0
 11 12  2  0  0  0  0
  7 12  1  0  0  0  0
M  END
>  <Catalog ID>
Z1262562584

>  <PlateID>
1198308-R-SPFL-08

>  <Well>
G10

>  <MW (desalted)>
158.200

>  <ClogP>
2.038

>  <HBD>
1

>  <TPSA>
28.680

>  <RotBonds>
2

$$$$

            

 14 13  0  0  0  0            999 V2000
    0.0000    0.0000    0.0000 Cl  0  0  0  0  0  0  0  0  0  0  0  0
    2.0036    0.0000    0.0000 Cl  0  0  0  0  0  0  0  0  0  0  0  0
   -0.0000   -5.7750    0.0000 C   0  0  0  0  0  0  0  0  0  0  0  0
   -0.7145   -5.3625    0.0000 C   0  0  0  0  0  0  0  0  0  0  0  0
   -0.7145   -4.5375    0.0000 C   0  0  0  0  0  0  0  0  0  0  0  0
   -0.0000   -4.1250    0.0000 C   0  0  0  0  0  0  0  0  0  0  0  0
    0.7145   -4.5375    0.0000 N   0  0  0  0  0  0  0  0  0  0  0  0
    0.7145   -5.3625    0.0000 C   0  0  0  0  0  0  0  0  0  0  0  0
    0.0000   -3.3000    0.0000 C   0  0  0  0  0  0  0  0  0  0  0  0
   -0.7145   -2.8875    0.0000 C   0  0  0  0  0  0  0  0  0  0  0  0
   -0.7145   -2.0625    0.0000 C   0  0  0  0  0  0  0  0  0  0  0  0
    0.0000   -1.6500    0.0000 C   0  0  0  0  0  0  0  0  0  0  0  0
    0.7145   -2.0625    0.0000 N   0  0  0  0  0  0  0  0  0  0  0  0
    0.7145   -2.8875    0.0000 C   0  0  0  0  0  0  0  0  0  0  0  0
  3  4  1  0  0  0  0
  4  5  1  0  0  0  0
  5  6  1  0  0  0  0
  6  7  2  0  0  0  0
  7  8  1  0  0  0  0
  3  8  1  0  0  0  0
  6  9  1  0  0  0  0
  9 10  2  0  0  0  0
 10 11  1  0  0  0  0
 11 12  2  0  0  0  0
 12 13  1  0  0  0  0
 13 14  2  0  0  0  0
  9 14  1  0  0  0  0
M  END
>  <Catalog ID>
Z2517097749

>  <PlateID>
1198308-R-SPFL-08

>  <Well>
G11

>  <MW (desalted)>
160.216

>  <ClogP>
0.960

>  <HBD>
0

>  <TPSA>
25.250

>  <RotBonds>
1

$$$$

            

 12 11  0  0  0  0            999 V2000
    0.0000    0.0000    0.0000 Cl  0  0  0  0  0  0  0  0  0  0  0  0
    2.3571    1.9500    0.0000 C   0  0  0  0  0  0  0  0  0  0  0  0
    2.3571    1.1250    0.0000 O   0  0  0  0  0  0  0  0  0  0  0  0
    3.0716    0.7125    0.0000 C   0  0  0  0  0  0  0  0  0  0  0  0
    3.7861    1.1250    0.0000 C   0  0  0  0  0  0  0  0  0  0  0  0
    4.5006    0.7125    0.0000 N   0  0  0  0  0  0  0  0  0  0  0  0
    3.0716   -0.1125    0.0000 C   0  0  0  0  0  0  0  0  0  0  0  0
    3.7861   -0.5250    0.0000 C   0  0  0  0  0  0  0  0  0  0  0  0
    3.7861   -1.3500    0.0000 C   0  0  0  0  0  0  0  0  0  0  0  0
    3.0716   -1.7625    0.0000 C   0  0  0  0  0  0  0  0  0  0  0  0
    2.3571   -1.3500    0.0000 C   0  0  0  0  0  0  0  0  0  0  0  0
    2.3571   -0.5250    0.0000 C   0  0  0  0  0  0  0  0  0  0  0  0
  2  3  1  0  0  0  0
  3  4  1  0  0  0  0
  4  5  1  0  0  0  0
  5  6  1  0  0  0  0
  4  7  1  0  0  0  0
  7  8  2  0  0  0  0
  8  9  1  0  0  0  0
  9 10  2  0  0  0  0
 10 11  1  0  0  0  0
 11 12  2  0  0  0  0
  7 12  1  0  0  0  0
M  END
>  <Catalog ID>
Z285139084

>  <PlateID>
1198308-R-SPFL-08

>  <Well>
H02

>  <MW (desalted)>
151.206

>  <ClogP>
1.126

>  <HBD>
1

>  <TPSA>
35.250

>  <RotBonds>
3

$$$$

            

 13 14  0  0  0  0            999 V2000
   -3.7703    8.6065    0.0000 C   0  0  0  0  0  0  0  0  0  0  0  0
   -3.4348    7.8528    0.0000 C   0  0  0  0  0  0  0  0  0  0  0  0
   -2.6278    7.6813    0.0000 N   0  0  0  0  0  0  0  0  0  0  0  0
   -2.5416    6.8608    0.0000 C   0  0  0  0  0  0  0  0  0  0  0  0
   -1.8271    6.4483    0.0000 C   0  0  0  0  0  0  0  0  0  0  0  0
   -1.8271    5.6233    0.0000 C   0  0  0  0  0  0  0  0  0  0  0  0
   -2.5416    5.2108    0.0000 O   0  0  0  0  0  0  0  0  0  0  0  0
   -1.1126    5.2108    0.0000 N   0  0  0  0  0  0  0  0  0  0  0  0
   -1.1126    4.3858    0.0000 C   0  0  0  0  0  0  0  0  0  0  0  0
   -0.7001    3.6714    0.0000 C   0  0  0  0  0  0  0  0  0  0  0  0
   -1.5251    3.6714    0.0000 C   0  0  0  0  0  0  0  0  0  0  0  0
   -3.2952    6.5253    0.0000 C   0  0  0  0  0  0  0  0  0  0  0  0
   -3.8473    7.1384    0.0000 S   0  0  0  0  0  0  0  0  0  0  0  0
  1  2  1  0  0  0  0
  2  3  2  0  0  0  0
  3  4  1  0  0  0  0
  4  5  1  0  0  0  0
  5  6  1  0  0  0  0
  6  7  2  0  0  0  0
  6  8  1  0  0  0  0
  8  9  1  0  0  0  0
  9 10  1  0  0  0  0
 10 11  1  0  0  0  0
  9 11  1  0  0  0  0
  4 12  2  0  0  0  0
 12 13  1  0  0  0  0
  2 13  1  0  0  0  0
M  END
>  <Catalog ID>
Z32366804

>  <PlateID>
1198308-R-SPFL-08

>  <Well>
H03

>  <MW (desalted)>
196.269

>  <ClogP>
0.117

>  <HBD>
1

>  <TPSA>
41.990

>  <RotBonds>
3

$$$$

            

 11 12  0  0  0  0            999 V2000
   -0.1712   -0.6979    0.0000 C   0  0  0  0  0  0  0  0  0  0  0  0
    0.6538   -0.6979    0.0000 C   0  0  0  0  0  0  0  0  0  0  0  0
    1.1387   -0.0305    0.0000 N   0  0  0  0  0  0  0  0  0  0  0  0
    1.9233   -0.2854    0.0000 C   0  0  0  0  0  0  0  0  0  0  0  0
    2.6378    0.1271    0.0000 C   0  0  0  0  0  0  0  0  0  0  0  0
    2.6378    0.9521    0.0000 F   0  0  0  0  0  0  0  0  0  0  0  0
    3.3523   -0.2854    0.0000 C   0  0  0  0  0  0  0  0  0  0  0  0
    3.3523   -1.1104    0.0000 C   0  0  0  0  0  0  0  0  0  0  0  0
    2.6378   -1.5229    0.0000 C   0  0  0  0  0  0  0  0  0  0  0  0
    1.9233   -1.1104    0.0000 C   0  0  0  0  0  0  0  0  0  0  0  0
    1.1387   -1.3654    0.0000 N   0  0  0  0  0  0  0  0  0  0  0  0
  1  2  1  0  0  0  0
  2  3  2  0  0  0  0
  3  4  1  0  0  0  0
  4  5  2  0  0  0  0
  5  6  1  0  0  0  0
  5  7  1  0  0  0  0
  7  8  2  0  0  0  0
  8  9  1  0  0  0  0
  9 10  2  0  0  0  0
  4 10  1  0  0  0  0
 10 11  1  0  0  0  0
  2 11  1  0  0  0  0
M  END
>  <Catalog ID>
Z1898799515

>  <PlateID>
1198308-R-SPFL-08

>  <Well>
H04

>  <MW (desalted)>
150.153

>  <ClogP>
2.055

>  <HBD>
1

>  <TPSA>
28.680

>  <RotBonds>
0

$$$$

            

 15 16  0  0  0  0            999 V2000
    2.0367    2.0009    0.0000 F   0  0  0  0  0  0  0  0  0  0  0  0
    2.7512    2.4134    0.0000 C   0  0  0  0  0  0  0  0  0  0  0  0
    2.7512    3.2384    0.0000 C   0  0  0  0  0  0  0  0  0  0  0  0
    3.4656    3.6509    0.0000 C   0  0  0  0  0  0  0  0  0  0  0  0
    4.1801    3.2384    0.0000 C   0  0  0  0  0  0  0  0  0  0  0  0
    4.1801    2.4134    0.0000 C   0  0  0  0  0  0  0  0  0  0  0  0
    3.4656    2.0009    0.0000 C   0  0  0  0  0  0  0  0  0  0  0  0
    3.4656    1.1759    0.0000 C   0  0  0  0  0  0  0  0  0  0  0  0
    2.7512    0.7634    0.0000 O   0  0  0  0  0  0  0  0  0  0  0  0
    4.1801    0.7634    0.0000 N   0  0  0  0  0  0  0  0  0  0  0  0
    4.1801   -0.0616    0.0000 C   0  0  0  0  0  0  0  0  0  0  0  0
    4.8476   -0.5465    0.0000 N   0  0  0  0  0  0  0  0  0  0  0  0
    4.5926   -1.3312    0.0000 N   0  0  0  0  0  0  0  0  0  0  0  0
    3.7676   -1.3312    0.0000 C   0  0  0  0  0  0  0  0  0  0  0  0
    3.5127   -0.5465    0.0000 S   0  0  0  0  0  0  0  0  0  0  0  0
  1  2  1  0  0  0  0
  2  3  2  0  0  0  0
  3  4  1  0  0  0  0
  4  5  2  0  0  0  0
  5  6  1  0  0  0  0
  6  7  2  0  0  0  0
  2  7  1  0  0  0  0
  7  8  1  0  0  0  0
  8  9  2  0  0  0  0
  8 10  1  0  0  0  0
 10 11  1  0  0  0  0
 11 12  2  0  0  0  0
 12 13  1  0  0  0  0
 13 14  2  0  0  0  0
 14 15  1  0  0  0  0
 11 15  1  0  0  0  0
M  END
>  <Catalog ID>
Z86417414

>  <PlateID>
1198308-R-SPFL-08

>  <Well>
H05

>  <MW (desalted)>
223.227

>  <ClogP>
0.912

>  <HBD>
1

>  <TPSA>
54.880

>  <RotBonds>
2

$$$$

            

 13 14  0  0  0  0            999 V2000
    0.7145   -2.8875    0.0000 O   0  0  0  0  0  0  0  0  0  0  0  0
    1.4289   -2.4750    0.0000 C   0  0  0  0  0  0  0  0  0  0  0  0
    2.1434   -2.8875    0.0000 O   0  0  0  0  0  0  0  0  0  0  0  0
    1.4289   -1.6500    0.0000 C   0  0  0  0  0  0  0  0  0  0  0  0
    0.7145   -1.2375    0.0000 C   0  0  0  0  0  0  0  0  0  0  0  0
    0.7145   -0.4125    0.0000 C   0  0  0  0  0  0  0  0  0  0  0  0
    1.4289    0.0000    0.0000 C   0  0  0  0  0  0  0  0  0  0  0  0
    2.1434   -0.4125    0.0000 C   0  0  0  0  0  0  0  0  0  0  0  0
    2.8579    0.0000    0.0000 C   0  0  0  0  0  0  0  0  0  0  0  0
    3.5724   -0.4125    0.0000 C   0  0  0  0  0  0  0  0  0  0  0  0
    3.5724   -1.2375    0.0000 O   0  0  0  0  0  0  0  0  0  0  0  0
    2.8579   -1.6500    0.0000 C   0  0  0  0  0  0  0  0  0  0  0  0
    2.1434   -1.2375    0.0000 C   0  0  0  0  0  0  0  0  0  0  0  0
  1  2  1  0  0  0  0
  2  3  2  0  0  0  0
  2  4  1  0  0  0  0
  4  5  2  0  0  0  0
  5  6  1  0  0  0  0
  6  7  2  0  0  0  0
  7  8  1  0  0  0  0
  8  9  1  0  0  0  0
  9 10  1  0  0  0  0
 10 11  1  0  0  0  0
 11 12  1  0  0  0  0
 12 13  1  0  0  0  0
  4 13  1  0  0  0  0
  8 13  2  0  0  0  0
M  END
>  <Catalog ID>
Z1416187975

>  <PlateID>
1198308-R-SPFL-08

>  <Well>
H06

>  <MW (desalted)>
178.185

>  <ClogP>
1.358

>  <HBD>
1

>  <TPSA>
46.530

>  <RotBonds>
1

$$$$

            

 14 15  0  0  0  0            999 V2000
   -1.8212   -2.1269    0.0000 O   0  0  0  0  0  0  0  0  0  0  0  0
   -1.4087   -1.4124    0.0000 C   0  0  0  0  0  0  0  0  0  0  0  0
   -1.8212   -0.6979    0.0000 O   0  0  0  0  0  0  0  0  0  0  0  0
   -0.5837   -1.4124    0.0000 C   0  0  0  0  0  0  0  0  0  0  0  0
   -0.1712   -0.6979    0.0000 C   0  0  0  0  0  0  0  0  0  0  0  0
    0.6538   -0.6979    0.0000 C   0  0  0  0  0  0  0  0  0  0  0  0
    1.1387   -0.0305    0.0000 N   0  0  0  0  0  0  0  0  0  0  0  0
    1.9233   -0.2854    0.0000 C   0  0  0  0  0  0  0  0  0  0  0  0
    2.6378    0.1271    0.0000 C   0  0  0  0  0  0  0  0  0  0  0  0
    3.3523   -0.2854    0.0000 C   0  0  0  0  0  0  0  0  0  0  0  0
    3.3523   -1.1104    0.0000 C   0  0  0  0  0  0  0  0  0  0  0  0
    2.6378   -1.5229    0.0000 C   0  0  0  0  0  0  0  0  0  0  0  0
    1.9233   -1.1104    0.0000 C   0  0  0  0  0  0  0  0  0  0  0  0
    1.1387   -1.3654    0.0000 O   0  0  0  0  0  0  0  0  0  0  0  0
  1  2  1  0  0  0  0
  2  3  2  0  0  0  0
  2  4  1  0  0  0  0
  4  5  1  0  0  0  0
  5  6  1  0  0  0  0
  6  7  2  0  0  0  0
  7  8  1  0  0  0  0
  8  9  2  0  0  0  0
  9 10  1  0  0  0  0
 10 11  2  0  0  0  0
 11 12  1  0  0  0  0
 12 13  2  0  0  0  0
  8 13  1  0  0  0  0
 13 14  1  0  0  0  0
  6 14  1  0  0  0  0
M  END
>  <Catalog ID>
Z57990849

>  <PlateID>
1198308-R-SPFL-08

>  <Well>
H07

>  <MW (desalted)>
191.183

>  <ClogP>
0.946

>  <HBD>
1

>  <TPSA>
63.330

>  <RotBonds>
3

$$$$

            

 10 10  0  0  0  0            999 V2000
   -0.8612    3.5893    0.0000 O   0  0  0  0  0  0  0  0  0  0  0  0
   -0.1467    3.1768    0.0000 C   0  0  0  0  0  0  0  0  0  0  0  0
    0.5678    3.5893    0.0000 O   0  0  0  0  0  0  0  0  0  0  0  0
   -0.1467    2.3518    0.0000 C   0  0  0  0  0  0  0  0  0  0  0  0
    0.5678    1.9393    0.0000 C   0  0  0  0  0  0  0  0  0  0  0  0
    0.5678    1.1143    0.0000 C   0  0  0  0  0  0  0  0  0  0  0  0
    1.2352    0.6294    0.0000 C   0  0  0  0  0  0  0  0  0  0  0  0
    0.9803   -0.1553    0.0000 S   0  0  0  0  0  0  0  0  0  0  0  0
    0.1553   -0.1553    0.0000 C   0  0  0  0  0  0  0  0  0  0  0  0
   -0.0997    0.6294    0.0000 N   0  0  0  0  0  0  0  0  0  0  0  0
  1  2  1  0  0  0  0
  2  3  2  0  0  0  0
  2  4  1  0  0  0  0
  4  5  1  0  0  0  0
  5  6  1  0  0  0  0
  6  7  2  0  0  0  0
  7  8  1  0  0  0  0
  8  9  1  0  0  0  0
  9 10  2  0  0  0  0
  6 10  1  0  0  0  0
M  END
>  <Catalog ID>
Z381407422

>  <PlateID>
1198308-R-SPFL-08

>  <Well>
H08

>  <MW (desalted)>
157.190

>  <ClogP>
0.247

>  <HBD>
1

>  <TPSA>
50.190

>  <RotBonds>
3

$$$$

            

 12 13  0  0  0  0            999 V2000
    0.7145   -2.8875    0.0000 C   0  0  0  0  0  0  0  0  0  0  0  0
    1.4289   -2.4750    0.0000 N   0  0  0  0  0  0  0  0  0  0  0  0
    1.4289   -1.6500    0.0000 C   0  0  0  0  0  0  0  0  0  0  0  0
    0.7145   -1.2375    0.0000 C   0  0  0  0  0  0  0  0  0  0  0  0
    0.7145   -0.4125    0.0000 N   0  0  0  0  0  0  0  0  0  0  0  0
    1.4289    0.0000    0.0000 N   0  0  0  0  0  0  0  0  0  0  0  0
    2.1434   -0.4125    0.0000 C   0  0  0  0  0  0  0  0  0  0  0  0
    2.8579    0.0000    0.0000 C   0  0  0  0  0  0  0  0  0  0  0  0
    3.5724   -0.4125    0.0000 C   0  0  0  0  0  0  0  0  0  0  0  0
    3.5724   -1.2375    0.0000 C   0  0  0  0  0  0  0  0  0  0  0  0
    2.8579   -1.6500    0.0000 C   0  0  0  0  0  0  0  0  0  0  0  0
    2.1434   -1.2375    0.0000 C   0  0  0  0  0  0  0  0  0  0  0  0
  1  2  1  0  0  0  0
  2  3  1  0  0  0  0
  3  4  2  0  0  0  0
  4  5  1  0  0  0  0
  5  6  2  0  0  0  0
  6  7  1  0  0  0  0
  7  8  2  0  0  0  0
  8  9  1  0  0  0  0
  9 10  2  0  0  0  0
 10 11  1  0  0  0  0
 11 12  2  0  0  0  0
  3 12  1  0  0  0  0
  7 12  1  0  0  0  0
M  END
>  <Catalog ID>
Z1139191247

>  <PlateID>
1198308-R-SPFL-08

>  <Well>
H09

>  <MW (desalted)>
159.188

>  <ClogP>
1.759

>  <HBD>
1

>  <TPSA>
37.810

>  <RotBonds>
1

$$$$

            

 12 12  0  0  0  0            999 V2000
    1.2822    2.3518    0.0000 O   0  0  0  0  0  0  0  0  0  0  0  0
    0.5678    1.9393    0.0000 C   0  0  0  0  0  0  0  0  0  0  0  0
   -0.1467    2.3518    0.0000 O   0  0  0  0  0  0  0  0  0  0  0  0
    0.5678    1.1143    0.0000 C   0  0  0  0  0  0  0  0  0  0  0  0
    1.2352    0.6294    0.0000 C   0  0  0  0  0  0  0  0  0  0  0  0
    0.9803   -0.1553    0.0000 C   0  0  0  0  0  0  0  0  0  0  0  0
    0.1553   -0.1553    0.0000 O   0  0  0  0  0  0  0  0  0  0  0  0
   -0.0997    0.6294    0.0000 C   0  0  0  0  0  0  0  0  0  0  0  0
   -0.8843    0.8843    0.0000 C   0  0  0  0  0  0  0  0  0  0  0  0
   -1.6689    1.1392    0.0000 F   0  0  0  0  0  0  0  0  0  0  0  0
   -0.6294    1.6689    0.0000 F   0  0  0  0  0  0  0  0  0  0  0  0
   -1.1392    0.0997    0.0000 F   0  0  0  0  0  0  0  0  0  0  0  0
  1  2  1  0  0  0  0
  2  3  2  0  0  0  0
  2  4  1  0  0  0  0
  4  5  1  0  0  0  0
  5  6  2  0  0  0  0
  6  7  1  0  0  0  0
  7  8  1  0  0  0  0
  4  8  2  0  0  0  0
  8  9  1  0  0  0  0
  9 10  1  0  0  0  0
  9 11  1  0  0  0  0
  9 12  1  0  0  0  0
M  END
>  <Catalog ID>
Z1198163014

>  <PlateID>
1198308-R-SPFL-08

>  <Well>
H10

>  <MW (desalted)>
180.081

>  <ClogP>
1.316

>  <HBD>
1

>  <TPSA>
50.440

>  <RotBonds>
2

$$$$

            

 12 13  0  0  0  0            999 V2000
    0.7145   -0.4125    0.0000 N   0  0  0  0  0  0  0  0  0  0  0  0
    0.7145   -1.2375    0.0000 C   0  0  0  0  0  0  0  0  0  0  0  0
    1.3819   -1.7224    0.0000 C   0  0  0  0  0  0  0  0  0  0  0  0
    1.1270   -2.5070    0.0000 C   0  0  0  0  0  0  0  0  0  0  0  0
    0.3020   -2.5070    0.0000 N   0  0  0  0  0  0  0  0  0  0  0  0
    0.0470   -1.7224    0.0000 O   0  0  0  0  0  0  0  0  0  0  0  0
    1.6119   -3.1745    0.0000 C   0  0  0  0  0  0  0  0  0  0  0  0
    2.4324   -3.0882    0.0000 C   0  0  0  0  0  0  0  0  0  0  0  0
    2.9173   -3.7557    0.0000 C   0  0  0  0  0  0  0  0  0  0  0  0
    2.5817   -4.5094    0.0000 C   0  0  0  0  0  0  0  0  0  0  0  0
    1.7613   -4.5956    0.0000 C   0  0  0  0  0  0  0  0  0  0  0  0
    1.2763   -3.9282    0.0000 C   0  0  0  0  0  0  0  0  0  0  0  0
  1  2  1  0  0  0  0
  2  3  2  0  0  0  0
  3  4  1  0  0  0  0
  4  5  2  0  0  0  0
  5  6  1  0  0  0  0
  2  6  1  0  0  0  0
  4  7  1  0  0  0  0
  7  8  2  0  0  0  0
  8  9  1  0  0  0  0
  9 10  2  0  0  0  0
 10 11  1  0  0  0  0
 11 12  2  0  0  0  0
  7 12  1  0  0  0  0
M  END
>  <Catalog ID>
Z164676856

>  <PlateID>
1198308-R-SPFL-08

>  <Well>
H11

>  <MW (desalted)>
160.173

>  <ClogP>
1.867

>  <HBD>
1

>  <TPSA>
52.050

>  <RotBonds>
1

$$$$

            

 14 14  0  0  0  0            999 V2000
    0.0000    0.0000    0.0000 Cl  0  0  0  0  0  0  0  0  0  0  0  0
    3.4191   -1.7622    0.0000 C   0  0  0  0  0  0  0  0  0  0  0  0
    3.6740   -0.9776    0.0000 N   0  0  0  0  0  0  0  0  0  0  0  0
    3.1891   -0.3101    0.0000 C   0  0  0  0  0  0  0  0  0  0  0  0
    3.6740    0.3573    0.0000 C   0  0  0  0  0  0  0  0  0  0  0  0
    3.4191    1.1419    0.0000 C   0  0  0  0  0  0  0  0  0  0  0  0
    2.6121    1.3134    0.0000 C   0  0  0  0  0  0  0  0  0  0  0  0
    2.3571    2.0981    0.0000 N   0  0  0  0  0  0  0  0  0  0  0  0
    4.4586    0.1024    0.0000 C   0  0  0  0  0  0  0  0  0  0  0  0
    5.1731    0.5149    0.0000 C   0  0  0  0  0  0  0  0  0  0  0  0
    5.8876    0.1024    0.0000 C   0  0  0  0  0  0  0  0  0  0  0  0
    5.8876   -0.7226    0.0000 C   0  0  0  0  0  0  0  0  0  0  0  0
    5.1731   -1.1351    0.0000 C   0  0  0  0  0  0  0  0  0  0  0  0
    4.4586   -0.7226    0.0000 C   0  0  0  0  0  0  0  0  0  0  0  0
  2  3  1  0  0  0  0
  3  4  1  0  0  0  0
  4  5  2  0  0  0  0
  5  6  1  0  0  0  0
  6  7  1  0  0  0  0
  7  8  1  0  0  0  0
  5  9  1  0  0  0  0
  9 10  2  0  0  0  0
 10 11  1  0  0  0  0
 11 12  2  0  0  0  0
 12 13  1  0  0  0  0
 13 14  2  0  0  0  0
  3 14  1  0  0  0  0
  9 14  1  0  0  0  0
M  END
>  <Catalog ID>
Z2492749416

>  <PlateID>
1198308-R-SPFL-09

>  <Well>
A02

>  <MW (desalted)>
174.242

>  <ClogP>
1.889

>  <HBD>
1

>  <TPSA>
30.950

>  <RotBonds>
2

$$$$

            

 11 11  0  0  0  0            999 V2000
    0.0000    0.0000    0.0000 Cl  0  0  0  0  0  0  0  0  0  0  0  0
    2.3571    0.0000    0.0000 N   0  0  0  0  0  0  0  0  0  0  0  0
    3.1821    0.0000    0.0000 C   0  0  0  0  0  0  0  0  0  0  0  0
    3.6671    0.6674    0.0000 N   0  0  0  0  0  0  0  0  0  0  0  0
    4.4517    0.4125    0.0000 C   0  0  0  0  0  0  0  0  0  0  0  0
    5.1662    0.8250    0.0000 C   0  0  0  0  0  0  0  0  0  0  0  0
    5.8806    0.4125    0.0000 C   0  0  0  0  0  0  0  0  0  0  0  0
    5.8806   -0.4125    0.0000 C   0  0  0  0  0  0  0  0  0  0  0  0
    5.1662   -0.8250    0.0000 C   0  0  0  0  0  0  0  0  0  0  0  0
    4.4517   -0.4125    0.0000 N   0  0  0  0  0  0  0  0  0  0  0  0
    3.6671   -0.6674    0.0000 N   0  0  0  0  0  0  0  0  0  0  0  0
  2  3  1  0  0  0  0
  3  4  1  0  0  0  0
  4  5  2  0  0  0  0
  5  6  1  0  0  0  0
  6  7  1  0  0  0  0
  7  8  1  0  0  0  0
  8  9  1  0  0  0  0
  9 10  1  0  0  0  0
  5 10  1  0  0  0  0
 10 11  1  0  0  0  0
  3 11  2  0  0  0  0
M  END
>  <Catalog ID>
Z2240822571

>  <PlateID>
1198308-R-SPFL-09

>  <Well>
A03

>  <MW (desalted)>
138.170

>  <ClogP>
-0.193

>  <HBD>
1

>  <TPSA>
56.730

>  <RotBonds>
0

$$$$

            

 14 16  0  0  0  0            999 V2000
    5.9950    0.3610    0.0000 C   0  0  0  0  0  0  0  0  0  0  0  0
    5.1704    0.3867    0.0000 C   0  0  0  0  0  0  0  0  0  0  0  0
    4.7804    1.1137    0.0000 C   0  0  0  0  0  0  0  0  0  0  0  0
    3.9558    1.1395    0.0000 C   0  0  0  0  0  0  0  0  0  0  0  0
    3.5212    0.4383    0.0000 C   0  0  0  0  0  0  0  0  0  0  0  0
    3.9112   -0.2887    0.0000 C   0  0  0  0  0  0  0  0  0  0  0  0
    4.7358   -0.3145    0.0000 C   0  0  0  0  0  0  0  0  0  0  0  0
    3.4766   -0.9900    0.0000 C   0  0  0  0  0  0  0  0  0  0  0  0
    2.6520   -0.9642    0.0000 N   0  0  0  0  0  0  0  0  0  0  0  0
    2.2620   -0.2372    0.0000 C   0  0  0  0  0  0  0  0  0  0  0  0
    1.4608   -0.0406    0.0000 N   0  0  0  0  0  0  0  0  0  0  0  0
    1.4002    0.7822    0.0000 C   0  0  0  0  0  0  0  0  0  0  0  0
    2.1640    1.0941    0.0000 N   0  0  0  0  0  0  0  0  0  0  0  0
    2.6966    0.4640    0.0000 N   0  0  0  0  0  0  0  0  0  0  0  0
  1  2  1  0  0  0  0
  2  3  1  0  0  0  0
  3  4  1  0  0  0  0
  4  5  1  0  0  0  0
  5  6  2  0  0  0  0
  6  7  1  0  0  0  0
  2  7  1  0  0  0  0
  6  8  1  0  0  0  0
  8  9  2  0  0  0  0
  9 10  1  0  0  0  0
 10 11  2  0  0  0  0
 11 12  1  0  0  0  0
 12 13  2  0  0  0  0
 13 14  1  0  0  0  0
  5 14  1  0  0  0  0
 10 14  1  0  0  0  0
M  END
>  <Catalog ID>
Z56778765

>  <PlateID>
1198308-R-SPFL-09

>  <Well>
A04

>  <MW (desalted)>
188.229

>  <ClogP>
1.445

>  <HBD>
0

>  <TPSA>
43.080

>  <RotBonds>
0

$$$$

            

 13 14  0  0  0  0            999 V2000
    0.7145   -0.4125    0.0000 N   0  0  0  0  0  0  0  0  0  0  0  0
    0.7145   -1.2375    0.0000 C   0  0  0  0  0  0  0  0  0  0  0  0
    1.4289   -1.6500    0.0000 N   0  0  0  0  0  0  0  0  0  0  0  0
    1.4289   -2.4750    0.0000 C   0  0  0  0  0  0  0  0  0  0  0  0
    0.7145   -2.8875    0.0000 C   0  0  0  0  0  0  0  0  0  0  0  0
    0.0000   -2.4750    0.0000 C   0  0  0  0  0  0  0  0  0  0  0  0
    0.0000   -1.6500    0.0000 N   0  0  0  0  0  0  0  0  0  0  0  0
   -0.7145   -2.8875    0.0000 C   0  0  0  0  0  0  0  0  0  0  0  0
   -0.7145   -3.7125    0.0000 C   0  0  0  0  0  0  0  0  0  0  0  0
   -1.4289   -4.1250    0.0000 C   0  0  0  0  0  0  0  0  0  0  0  0
   -2.1434   -3.7125    0.0000 C   0  0  0  0  0  0  0  0  0  0  0  0
   -2.1434   -2.8875    0.0000 C   0  0  0  0  0  0  0  0  0  0  0  0
   -1.4289   -2.4750    0.0000 C   0  0  0  0  0  0  0  0  0  0  0  0
  1  2  1  0  0  0  0
  2  3  2  0  0  0  0
  3  4  1  0  0  0  0
  4  5  2  0  0  0  0
  5  6  1  0  0  0  0
  6  7  2  0  0  0  0
  2  7  1  0  0  0  0
  6  8  1  0  0  0  0
  8  9  2  0  0  0  0
  9 10  1  0  0  0  0
 10 11  2  0  0  0  0
 11 12  1  0  0  0  0
 12 13  2  0  0  0  0
  8 13  1  0  0  0  0
M  END
>  <Catalog ID>
Z56788776

>  <PlateID>
1198308-R-SPFL-09

>  <Well>
A05

>  <MW (desalted)>
171.199

>  <ClogP>
1.774

>  <HBD>
1

>  <TPSA>
51.800

>  <RotBonds>
1

$$$$

            

 11 12  0  0  0  0            999 V2000
    1.2564   -0.1802    0.0000 C   0  0  0  0  0  0  0  0  0  0  0  0
    1.2564   -1.0052    0.0000 C   0  0  0  0  0  0  0  0  0  0  0  0
    1.9239   -1.4901    0.0000 C   0  0  0  0  0  0  0  0  0  0  0  0
    1.6689   -2.2748    0.0000 C   0  0  0  0  0  0  0  0  0  0  0  0
    0.8439   -2.2748    0.0000 O   0  0  0  0  0  0  0  0  0  0  0  0
    0.5890   -1.4901    0.0000 N   0  0  0  0  0  0  0  0  0  0  0  0
    2.1538   -2.9422    0.0000 C   0  0  0  0  0  0  0  0  0  0  0  0
    2.9788   -2.9422    0.0000 C   0  0  0  0  0  0  0  0  0  0  0  0
    3.2338   -3.7268    0.0000 C   0  0  0  0  0  0  0  0  0  0  0  0
    2.5663   -4.2117    0.0000 C   0  0  0  0  0  0  0  0  0  0  0  0
    1.8989   -3.7268    0.0000 N   0  0  0  0  0  0  0  0  0  0  0  0
  1  2  1  0  0  0  0
  2  3  1  0  0  0  0
  3  4  2  0  0  0  0
  4  5  1  0  0  0  0
  5  6  1  0  0  0  0
  2  6  2  0  0  0  0
  4  7  1  0  0  0  0
  7  8  1  0  0  0  0
  8  9  1  0  0  0  0
  9 10  1  0  0  0  0
 10 11  1  0  0  0  0
  7 11  1  0  0  0  0
M  END
>  <Catalog ID>
Z415726580

>  <PlateID>
1198308-R-SPFL-09

>  <Well>
A06

>  <MW (desalted)>
152.194

>  <ClogP>
0.182

>  <HBD>
1

>  <TPSA>
38.060

>  <RotBonds>
1

$$$$

            

 12 13  0  0  0  0            999 V2000
    0.7145   -2.8875    0.0000 C   0  0  0  0  0  0  0  0  0  0  0  0
    1.4289   -2.4750    0.0000 O   0  0  0  0  0  0  0  0  0  0  0  0
    1.4289   -1.6500    0.0000 C   0  0  0  0  0  0  0  0  0  0  0  0
    0.7145   -1.2375    0.0000 C   0  0  0  0  0  0  0  0  0  0  0  0
    0.7145   -0.4125    0.0000 C   0  0  0  0  0  0  0  0  0  0  0  0
    1.4289    0.0000    0.0000 C   0  0  0  0  0  0  0  0  0  0  0  0
    2.1434   -0.4125    0.0000 C   0  0  0  0  0  0  0  0  0  0  0  0
    2.8579    0.0000    0.0000 N   0  0  0  0  0  0  0  0  0  0  0  0
    3.5724   -0.4125    0.0000 C   0  0  0  0  0  0  0  0  0  0  0  0
    3.5724   -1.2375    0.0000 C   0  0  0  0  0  0  0  0  0  0  0  0
    2.8579   -1.6500    0.0000 C   0  0  0  0  0  0  0  0  0  0  0  0
    2.1434   -1.2375    0.0000 C   0  0  0  0  0  0  0  0  0  0  0  0
  1  2  1  0  0  0  0
  2  3  1  0  0  0  0
  3  4  2  0  0  0  0
  4  5  1  0  0  0  0
  5  6  2  0  0  0  0
  6  7  1  0  0  0  0
  7  8  2  0  0  0  0
  8  9  1  0  0  0  0
  9 10  2  0  0  0  0
 10 11  1  0  0  0  0
 11 12  2  0  0  0  0
  3 12  1  0  0  0  0
  7 12  1  0  0  0  0
M  END
>  <Catalog ID>
Z1198161023

>  <PlateID>
1198308-R-SPFL-09

>  <Well>
A07

>  <MW (desalted)>
159.185

>  <ClogP>
2.324

>  <HBD>
0

>  <TPSA>
22.120

>  <RotBonds>
1

$$$$

            

 10 11  0  0  0  0            999 V2000
    1.5342   -0.7349    0.0000 C   0  0  0  0  0  0  0  0  0  0  0  0
    2.2487   -1.1474    0.0000 N   0  0  0  0  0  0  0  0  0  0  0  0
    2.2487   -1.9724    0.0000 C   0  0  0  0  0  0  0  0  0  0  0  0
    2.6612   -2.6869    0.0000 C   0  0  0  0  0  0  0  0  0  0  0  0
    1.8362   -2.6869    0.0000 C   0  0  0  0  0  0  0  0  0  0  0  0
    1.5342    0.0901    0.0000 C   0  0  0  0  0  0  0  0  0  0  0  0
    0.8668    0.5750    0.0000 N   0  0  0  0  0  0  0  0  0  0  0  0
    1.1217    1.3596    0.0000 C   0  0  0  0  0  0  0  0  0  0  0  0
    1.9467    1.3596    0.0000 C   0  0  0  0  0  0  0  0  0  0  0  0
    2.2016    0.5750    0.0000 S   0  0  0  0  0  0  0  0  0  0  0  0
  1  2  1  0  0  0  0
  2  3  1  0  0  0  0
  3  4  1  0  0  0  0
  4  5  1  0  0  0  0
  3  5  1  0  0  0  0
  1  6  1  0  0  0  0
  6  7  2  0  0  0  0
  7  8  1  0  0  0  0
  8  9  2  0  0  0  0
  9 10  1  0  0  0  0
  6 10  1  0  0  0  0
M  END
>  <Catalog ID>
Z1079004784

>  <PlateID>
1198308-R-SPFL-09

>  <Well>
A08

>  <MW (desalted)>
154.233

>  <ClogP>
0.438

>  <HBD>
1

>  <TPSA>
24.920

>  <RotBonds>
3

$$$$

            

 11 12  0  0  0  0            999 V2000
    0.0768   -2.3215    0.0000 O   0  0  0  0  0  0  0  0  0  0  0  0
    0.8838   -2.1500    0.0000 C   0  0  0  0  0  0  0  0  0  0  0  0
    1.1387   -1.3654    0.0000 N   0  0  0  0  0  0  0  0  0  0  0  0
    0.6538   -0.6979    0.0000 C   0  0  0  0  0  0  0  0  0  0  0  0
    1.1387   -0.0305    0.0000 N   0  0  0  0  0  0  0  0  0  0  0  0
    1.9233   -0.2854    0.0000 C   0  0  0  0  0  0  0  0  0  0  0  0
    2.6378    0.1271    0.0000 C   0  0  0  0  0  0  0  0  0  0  0  0
    3.3523   -0.2854    0.0000 C   0  0  0  0  0  0  0  0  0  0  0  0
    3.3523   -1.1104    0.0000 C   0  0  0  0  0  0  0  0  0  0  0  0
    2.6378   -1.5229    0.0000 C   0  0  0  0  0  0  0  0  0  0  0  0
    1.9233   -1.1104    0.0000 C   0  0  0  0  0  0  0  0  0  0  0  0
  1  2  1  0  0  0  0
  2  3  1  0  0  0  0
  3  4  1  0  0  0  0
  4  5  2  0  0  0  0
  5  6  1  0  0  0  0
  6  7  2  0  0  0  0
  7  8  1  0  0  0  0
  8  9  2  0  0  0  0
  9 10  1  0  0  0  0
 10 11  2  0  0  0  0
  3 11  1  0  0  0  0
  6 11  1  0  0  0  0
M  END
>  <Catalog ID>
Z56926682

>  <PlateID>
1198308-R-SPFL-09

>  <Well>
A09

>  <MW (desalted)>
148.162

>  <ClogP>
0.604

>  <HBD>
1

>  <TPSA>
38.050

>  <RotBonds>
1

$$$$

            

 13 14  0  0  0  0            999 V2000
   -0.8212    6.0027    0.0000 C   0  0  0  0  0  0  0  0  0  0  0  0
   -0.1067    5.5902    0.0000 C   0  0  0  0  0  0  0  0  0  0  0  0
    0.6078    6.0027    0.0000 C   0  0  0  0  0  0  0  0  0  0  0  0
    1.3222    5.5902    0.0000 C   0  0  0  0  0  0  0  0  0  0  0  0
    1.3222    4.7652    0.0000 C   0  0  0  0  0  0  0  0  0  0  0  0
    2.0367    4.3527    0.0000 C   0  0  0  0  0  0  0  0  0  0  0  0
    2.0367    3.5277    0.0000 C   0  0  0  0  0  0  0  0  0  0  0  0
    2.7041    3.0428    0.0000 N   0  0  0  0  0  0  0  0  0  0  0  0
    2.4492    2.2581    0.0000 N   0  0  0  0  0  0  0  0  0  0  0  0
    1.6242    2.2581    0.0000 N   0  0  0  0  0  0  0  0  0  0  0  0
    1.3693    3.0428    0.0000 N   0  0  0  0  0  0  0  0  0  0  0  0
    0.6078    4.3527    0.0000 C   0  0  0  0  0  0  0  0  0  0  0  0
   -0.1067    4.7652    0.0000 C   0  0  0  0  0  0  0  0  0  0  0  0
  1  2  1  0  0  0  0
  2  3  2  0  0  0  0
  3  4  1  0  0  0  0
  4  5  2  0  0  0  0
  5  6  1  0  0  0  0
  6  7  1  0  0  0  0
  7  8  2  0  0  0  0
  8  9  1  0  0  0  0
  9 10  2  0  0  0  0
 10 11  1  0  0  0  0
  7 11  1  0  0  0  0
  5 12  1  0  0  0  0
 12 13  2  0  0  0  0
  2 13  1  0  0  0  0
M  END
>  <Catalog ID>
Z335295264

>  <PlateID>
1198308-R-SPFL-09

>  <Well>
A10

>  <MW (desalted)>
174.203

>  <ClogP>
2.103

>  <HBD>
1

>  <TPSA>
54.460

>  <RotBonds>
2

$$$$

            

 11 11  0  0  0  0            999 V2000
    0.7145    2.0625    0.0000 N   0  0  0  0  0  0  0  0  0  0  0  0
    0.7145    1.2375    0.0000 C   0  0  0  0  0  0  0  0  0  0  0  0
    1.4289    0.8250    0.0000 C   0  0  0  0  0  0  0  0  0  0  0  0
    1.4289   -0.0000    0.0000 C   0  0  0  0  0  0  0  0  0  0  0  0
    0.7145   -0.4125    0.0000 N   0  0  0  0  0  0  0  0  0  0  0  0
    0.0000    0.0000    0.0000 C   0  0  0  0  0  0  0  0  0  0  0  0
    0.0000    0.8250    0.0000 N   0  0  0  0  0  0  0  0  0  0  0  0
    2.1434   -0.4125    0.0000 C   0  0  0  0  0  0  0  0  0  0  0  0
    2.8579   -0.8250    0.0000 F   0  0  0  0  0  0  0  0  0  0  0  0
    1.7309   -1.1270    0.0000 F   0  0  0  0  0  0  0  0  0  0  0  0
    2.5559    0.3020    0.0000 F   0  0  0  0  0  0  0  0  0  0  0  0
  1  2  1  0  0  0  0
  2  3  2  0  0  0  0
  3  4  1  0  0  0  0
  4  5  2  0  0  0  0
  5  6  1  0  0  0  0
  6  7  2  0  0  0  0
  2  7  1  0  0  0  0
  4  8  1  0  0  0  0
  8  9  1  0  0  0  0
  8 10  1  0  0  0  0
  8 11  1  0  0  0  0
M  END
>  <Catalog ID>
Z1198177322

>  <PlateID>
1198308-R-SPFL-09

>  <Well>
A11

>  <MW (desalted)>
163.101

>  <ClogP>
0.639

>  <HBD>
1

>  <TPSA>
51.800

>  <RotBonds>
1

$$$$

            

 15 16  0  0  0  0            999 V2000
    2.0106    2.7048    0.0000 C   0  0  0  0  0  0  0  0  0  0  0  0
    2.6154    2.1437    0.0000 C   0  0  0  0  0  0  0  0  0  0  0  0
    2.4318    1.3394    0.0000 N   0  0  0  0  0  0  0  0  0  0  0  0
    3.0768    0.8250    0.0000 C   0  0  0  0  0  0  0  0  0  0  0  0
    3.0768   -0.0000    0.0000 C   0  0  0  0  0  0  0  0  0  0  0  0
    2.4318   -0.5144    0.0000 C   0  0  0  0  0  0  0  0  0  0  0  0
    2.6154   -1.3187    0.0000 O   0  0  0  0  0  0  0  0  0  0  0  0
    1.6275   -0.3308    0.0000 N   0  0  0  0  0  0  0  0  0  0  0  0
    1.2695    0.4125    0.0000 C   0  0  0  0  0  0  0  0  0  0  0  0
    0.7846   -0.2549    0.0000 C   0  0  0  0  0  0  0  0  0  0  0  0
    0.0000   -0.0000    0.0000 C   0  0  0  0  0  0  0  0  0  0  0  0
   -0.0000    0.8250    0.0000 C   0  0  0  0  0  0  0  0  0  0  0  0
    0.7846    1.0799    0.0000 C   0  0  0  0  0  0  0  0  0  0  0  0
    1.6275    1.1558    0.0000 C   0  0  0  0  0  0  0  0  0  0  0  0
    1.1131    1.8008    0.0000 O   0  0  0  0  0  0  0  0  0  0  0  0
  1  2  1  0  0  0  0
  2  3  1  0  0  0  0
  3  4  1  0  0  0  0
  4  5  1  0  0  0  0
  5  6  1  0  0  0  0
  6  7  2  0  0  0  0
  6  8  1  0  0  0  0
  8  9  1  0  0  0  0
  9 10  1  0  0  0  0
 10 11  1  0  0  0  0
 11 12  1  0  0  0  0
 12 13  1  0  0  0  0
  9 13  1  0  0  0  0
  9 14  1  0  0  0  0
  3 14  1  0  0  0  0
 14 15  2  0  0  0  0
M  END
>  <Catalog ID>
Z1250948573

>  <PlateID>
1198308-R-SPFL-09

>  <Well>
B02

>  <MW (desalted)>
210.273

>  <ClogP>
1.461

>  <HBD>
1

>  <TPSA>
49.410

>  <RotBonds>
1

$$$$

            

 13 14  0  0  0  0            999 V2000
   -0.1712   -0.6979    0.0000 C   0  0  0  0  0  0  0  0  0  0  0  0
    0.6538   -0.6979    0.0000 C   0  0  0  0  0  0  0  0  0  0  0  0
    1.1387   -0.0305    0.0000 N   0  0  0  0  0  0  0  0  0  0  0  0
    1.9233   -0.2854    0.0000 C   0  0  0  0  0  0  0  0  0  0  0  0
    2.6378    0.1271    0.0000 C   0  0  0  0  0  0  0  0  0  0  0  0
    3.3523   -0.2854    0.0000 C   0  0  0  0  0  0  0  0  0  0  0  0
    3.3523   -1.1104    0.0000 C   0  0  0  0  0  0  0  0  0  0  0  0
    2.6378   -1.5229    0.0000 C   0  0  0  0  0  0  0  0  0  0  0  0
    1.9233   -1.1104    0.0000 C   0  0  0  0  0  0  0  0  0  0  0  0
    1.1387   -1.3654    0.0000 O   0  0  0  0  0  0  0  0  0  0  0  0
    2.6378    0.9521    0.0000 C   0  0  0  0  0  0  0  0  0  0  0  0
    1.9233    1.3646    0.0000 O   0  0  0  0  0  0  0  0  0  0  0  0
    3.3523    1.3646    0.0000 O   0  0  0  0  0  0  0  0  0  0  0  0
  1  2  1  0  0  0  0
  2  3  2  0  0  0  0
  3  4  1  0  0  0  0
  4  5  2  0  0  0  0
  5  6  1  0  0  0  0
  6  7  2  0  0  0  0
  7  8  1  0  0  0  0
  8  9  2  0  0  0  0
  4  9  1  0  0  0  0
  9 10  1  0  0  0  0
  2 10  1  0  0  0  0
  5 11  1  0  0  0  0
 11 12  2  0  0  0  0
 11 13  1  0  0  0  0
M  END
>  <Catalog ID>
Z1262514370

>  <PlateID>
1198308-R-SPFL-09

>  <Well>
B03

>  <MW (desalted)>
177.157

>  <ClogP>
1.735

>  <HBD>
1

>  <TPSA>
63.330

>  <RotBonds>
1

$$$$

            

 16 18  0  0  0  0            999 V2000
   -0.1712   -0.6979    0.0000 C   0  0  0  0  0  0  0  0  0  0  0  0
   -0.5837   -1.4124    0.0000 N   0  0  0  0  0  0  0  0  0  0  0  0
   -0.1712   -2.1269    0.0000 C   0  0  0  0  0  0  0  0  0  0  0  0
   -0.5837   -2.8414    0.0000 C   0  0  0  0  0  0  0  0  0  0  0  0
   -1.4087   -2.8414    0.0000 C   0  0  0  0  0  0  0  0  0  0  0  0
   -1.8212   -2.1269    0.0000 C   0  0  0  0  0  0  0  0  0  0  0  0
   -1.4087   -1.4124    0.0000 C   0  0  0  0  0  0  0  0  0  0  0  0
    0.6538   -0.6979    0.0000 C   0  0  0  0  0  0  0  0  0  0  0  0
    1.1387   -0.0305    0.0000 C   0  0  0  0  0  0  0  0  0  0  0  0
    1.9233   -0.2854    0.0000 N   0  0  0  0  0  0  0  0  0  0  0  0
    2.6378    0.1271    0.0000 C   0  0  0  0  0  0  0  0  0  0  0  0
    3.3523   -0.2854    0.0000 C   0  0  0  0  0  0  0  0  0  0  0  0
    3.3523   -1.1104    0.0000 C   0  0  0  0  0  0  0  0  0  0  0  0
    2.6378   -1.5229    0.0000 N   0  0  0  0  0  0  0  0  0  0  0  0
    1.9233   -1.1104    0.0000 C   0  0  0  0  0  0  0  0  0  0  0  0
    1.1387   -1.3654    0.0000 N   0  0  0  0  0  0  0  0  0  0  0  0
  1  2  1  0  0  0  0
  2  3  1  0  0  0  0
  3  4  1  0  0  0  0
  4  5  1  0  0  0  0
  5  6  1  0  0  0  0
  6  7  1  0  0  0  0
  2  7  1  0  0  0  0
  1  8  1  0  0  0  0
  8  9  2  0  0  0  0
  9 10  1  0  0  0  0
 10 11  1  0  0  0  0
 11 12  2  0  0  0  0
 12 13  1  0  0  0  0
 13 14  2  0  0  0  0
 14 15  1  0  0  0  0
 10 15  1  0  0  0  0
 15 16  2  0  0  0  0
  8 16  1  0  0  0  0
M  END
>  <Catalog ID>
Z223450060

>  <PlateID>
1198308-R-SPFL-09

>  <Well>
B04

>  <MW (desalted)>
216.282

>  <ClogP>
1.324

>  <HBD>
0

>  <TPSA>
33.430

>  <RotBonds>
2

$$$$

            

 13 14  0  0  0  0            999 V2000
   -0.0000    7.1786    0.0000 O   0  0  0  0  0  0  0  0  0  0  0  0
    0.7145    6.7661    0.0000 C   0  0  0  0  0  0  0  0  0  0  0  0
    0.7145    5.9411    0.0000 C   0  0  0  0  0  0  0  0  0  0  0  0
    1.4289    5.5286    0.0000 C   0  0  0  0  0  0  0  0  0  0  0  0
    1.4289    4.7036    0.0000 C   0  0  0  0  0  0  0  0  0  0  0  0
    0.7145    4.2911    0.0000 C   0  0  0  0  0  0  0  0  0  0  0  0
    0.0000    4.7036    0.0000 C   0  0  0  0  0  0  0  0  0  0  0  0
    0.0000    5.5286    0.0000 C   0  0  0  0  0  0  0  0  0  0  0  0
    0.7145    3.4661    0.0000 N   0  0  0  0  0  0  0  0  0  0  0  0
    1.3819    2.9812    0.0000 C   0  0  0  0  0  0  0  0  0  0  0  0
    1.1270    2.1965    0.0000 C   0  0  0  0  0  0  0  0  0  0  0  0
    0.3020    2.1965    0.0000 C   0  0  0  0  0  0  0  0  0  0  0  0
    0.0470    2.9812    0.0000 N   0  0  0  0  0  0  0  0  0  0  0  0
  1  2  1  0  0  0  0
  2  3  1  0  0  0  0
  3  4  2  0  0  0  0
  4  5  1  0  0  0  0
  5  6  2  0  0  0  0
  6  7  1  0  0  0  0
  7  8  2  0  0  0  0
  3  8  1  0  0  0  0
  6  9  1  0  0  0  0
  9 10  1  0  0  0  0
 10 11  2  0  0  0  0
 11 12  1  0  0  0  0
 12 13  2  0  0  0  0
  9 13  1  0  0  0  0
M  END
>  <Catalog ID>
Z96091883

>  <PlateID>
1198308-R-SPFL-09

>  <Well>
B05

>  <MW (desalted)>
174.199

>  <ClogP>
1.158

>  <HBD>
1

>  <TPSA>
38.050

>  <RotBonds>
2

$$$$

            

 13 14  0  0  0  0            999 V2000
   -0.8212    6.0027    0.0000 N   0  0  0  0  0  0  0  0  0  0  0  0
   -0.1067    5.5902    0.0000 C   0  0  0  0  0  0  0  0  0  0  0  0
    0.6078    6.0027    0.0000 C   0  0  0  0  0  0  0  0  0  0  0  0
    1.3222    5.5902    0.0000 C   0  0  0  0  0  0  0  0  0  0  0  0
    1.3222    4.7652    0.0000 N   0  0  0  0  0  0  0  0  0  0  0  0
    2.0367    4.3527    0.0000 C   0  0  0  0  0  0  0  0  0  0  0  0
    2.0367    3.5277    0.0000 C   0  0  0  0  0  0  0  0  0  0  0  0
    2.7041    3.0428    0.0000 C   0  0  0  0  0  0  0  0  0  0  0  0
    2.4492    2.2581    0.0000 C   0  0  0  0  0  0  0  0  0  0  0  0
    1.6242    2.2581    0.0000 C   0  0  0  0  0  0  0  0  0  0  0  0
    1.3693    3.0428    0.0000 S   0  0  0  0  0  0  0  0  0  0  0  0
    0.6078    4.3527    0.0000 C   0  0  0  0  0  0  0  0  0  0  0  0
   -0.1067    4.7652    0.0000 C   0  0  0  0  0  0  0  0  0  0  0  0
  1  2  1  0  0  0  0
  2  3  1  0  0  0  0
  3  4  1  0  0  0  0
  4  5  1  0  0  0  0
  5  6  1  0  0  0  0
  6  7  1  0  0  0  0
  7  8  2  0  0  0  0
  8  9  1  0  0  0  0
  9 10  2  0  0  0  0
 10 11  1  0  0  0  0
  7 11  1  0  0  0  0
  5 12  1  0  0  0  0
 12 13  1  0  0  0  0
  2 13  1  0  0  0  0
M  END
>  <Catalog ID>
Z362837084

>  <PlateID>
1198308-R-SPFL-09

>  <Well>
B06

>  <MW (desalted)>
196.312

>  <ClogP>
0.828

>  <HBD>
1

>  <TPSA>
29.260

>  <RotBonds>
2

$$$$

            

 15 16  0  0  0  0            999 V2000
    1.9810   -1.8619    0.0000 F   0  0  0  0  0  0  0  0  0  0  0  0
    1.4289   -2.4750    0.0000 C   0  0  0  0  0  0  0  0  0  0  0  0
    0.8769   -1.8619    0.0000 F   0  0  0  0  0  0  0  0  0  0  0  0
    2.0964   -2.9599    0.0000 C   0  0  0  0  0  0  0  0  0  0  0  0
    1.8414   -3.7445    0.0000 C   0  0  0  0  0  0  0  0  0  0  0  0
    1.0164   -3.7445    0.0000 N   0  0  0  0  0  0  0  0  0  0  0  0
    0.5315   -4.4120    0.0000 C   0  0  0  0  0  0  0  0  0  0  0  0
    0.8671   -5.1657    0.0000 C   0  0  0  0  0  0  0  0  0  0  0  0
    0.3822   -5.8331    0.0000 C   0  0  0  0  0  0  0  0  0  0  0  0
    0.7177   -6.5868    0.0000 C   0  0  0  0  0  0  0  0  0  0  0  0
    0.2328   -7.2542    0.0000 C   0  0  0  0  0  0  0  0  0  0  0  0
   -0.5877   -7.1680    0.0000 C   0  0  0  0  0  0  0  0  0  0  0  0
   -0.9232   -6.4143    0.0000 C   0  0  0  0  0  0  0  0  0  0  0  0
   -0.4383   -5.7469    0.0000 N   0  0  0  0  0  0  0  0  0  0  0  0
    0.7615   -2.9599    0.0000 C   0  0  0  0  0  0  0  0  0  0  0  0
  1  2  1  0  0  0  0
  2  3  1  0  0  0  0
  2  4  1  0  0  0  0
  4  5  1  0  0  0  0
  5  6  1  0  0  0  0
  6  7  1  0  0  0  0
  7  8  1  0  0  0  0
  8  9  1  0  0  0  0
  9 10  2  0  0  0  0
 10 11  1  0  0  0  0
 11 12  2  0  0  0  0
 12 13  1  0  0  0  0
 13 14  2  0  0  0  0
  9 14  1  0  0  0  0
  6 15  1  0  0  0  0
  2 15  1  0  0  0  0
M  END
>  <Catalog ID>
Z1603298409

>  <PlateID>
1198308-R-SPFL-09

>  <Well>
B07

>  <MW (desalted)>
212.239

>  <ClogP>
1.538

>  <HBD>
0

>  <TPSA>
16.130

>  <RotBonds>
3

$$$$

            

 14 15  0  0  0  0            999 V2000
   -2.7131    7.1387    0.0000 C   0  0  0  0  0  0  0  0  0  0  0  0
   -2.3776    6.3850    0.0000 C   0  0  0  0  0  0  0  0  0  0  0  0
   -2.8625    5.7176    0.0000 N   0  0  0  0  0  0  0  0  0  0  0  0
   -2.6075    4.9330    0.0000 C   0  0  0  0  0  0  0  0  0  0  0  0
   -3.2750    4.4480    0.0000 C   0  0  0  0  0  0  0  0  0  0  0  0
   -3.2750    3.6230    0.0000 N   0  0  0  0  0  0  0  0  0  0  0  0
   -2.5605    3.2105    0.0000 C   0  0  0  0  0  0  0  0  0  0  0  0
   -1.8460    3.6230    0.0000 O   0  0  0  0  0  0  0  0  0  0  0  0
   -2.5605    2.3855    0.0000 C   0  0  0  0  0  0  0  0  0  0  0  0
   -1.9771    1.8022    0.0000 C   0  0  0  0  0  0  0  0  0  0  0  0
   -2.5605    1.2188    0.0000 C   0  0  0  0  0  0  0  0  0  0  0  0
   -3.1439    1.8022    0.0000 C   0  0  0  0  0  0  0  0  0  0  0  0
   -3.9424    4.9330    0.0000 C   0  0  0  0  0  0  0  0  0  0  0  0
   -3.6875    5.7176    0.0000 N   0  0  0  0  0  0  0  0  0  0  0  0
  1  2  1  0  0  0  0
  2  3  1  0  0  0  0
  3  4  1  0  0  0  0
  4  5  2  0  0  0  0
  5  6  1  0  0  0  0
  6  7  1  0  0  0  0
  7  8  2  0  0  0  0
  7  9  1  0  0  0  0
  9 10  1  0  0  0  0
 10 11  1  0  0  0  0
 11 12  1  0  0  0  0
  9 12  1  0  0  0  0
  5 13  1  0  0  0  0
 13 14  2  0  0  0  0
  3 14  1  0  0  0  0
M  END
>  <Catalog ID>
Z373768900

>  <PlateID>
1198308-R-SPFL-09

>  <Well>
B08

>  <MW (desalted)>
193.246

>  <ClogP>
1.125

>  <HBD>
1

>  <TPSA>
46.920

>  <RotBonds>
3

$$$$

            

 11 12  0  0  0  0            999 V2000
    0.0000   -1.6500    0.0000 O   0  0  0  0  0  0  0  0  0  0  0  0
    0.7145   -1.2375    0.0000 C   0  0  0  0  0  0  0  0  0  0  0  0
    0.7145   -0.4125    0.0000 C   0  0  0  0  0  0  0  0  0  0  0  0
    1.4289    0.0000    0.0000 C   0  0  0  0  0  0  0  0  0  0  0  0
    2.1434   -0.4125    0.0000 C   0  0  0  0  0  0  0  0  0  0  0  0
    2.8579    0.0000    0.0000 C   0  0  0  0  0  0  0  0  0  0  0  0
    3.5724   -0.4125    0.0000 C   0  0  0  0  0  0  0  0  0  0  0  0
    3.5724   -1.2375    0.0000 C   0  0  0  0  0  0  0  0  0  0  0  0
    2.8579   -1.6500    0.0000 C   0  0  0  0  0  0  0  0  0  0  0  0
    2.1434   -1.2375    0.0000 C   0  0  0  0  0  0  0  0  0  0  0  0
    1.4289   -1.6500    0.0000 N   0  0  0  0  0  0  0  0  0  0  0  0
  1  2  2  0  0  0  0
  2  3  1  0  0  0  0
  3  4  1  0  0  0  0
  4  5  1  0  0  0  0
  5  6  2  0  0  0  0
  6  7  1  0  0  0  0
  7  8  2  0  0  0  0
  8  9  1  0  0  0  0
  9 10  2  0  0  0  0
  5 10  1  0  0  0  0
 10 11  1  0  0  0  0
  2 11  1  0  0  0  0
M  END
>  <Catalog ID>
Z85917566

>  <PlateID>
1198308-R-SPFL-09

>  <Well>
B09

>  <MW (desalted)>
147.174

>  <ClogP>
1.296

>  <HBD>
1

>  <TPSA>
29.100

>  <RotBonds>
0

$$$$

            

 11 12  0  0  0  0            999 V2000
    0.5057    2.4958    0.0000 O   0  0  0  0  0  0  0  0  0  0  0  0
    1.1188    1.9438    0.0000 C   0  0  0  0  0  0  0  0  0  0  0  0
    0.9473    1.1368    0.0000 O   0  0  0  0  0  0  0  0  0  0  0  0
    1.9034    2.1987    0.0000 C   0  0  0  0  0  0  0  0  0  0  0  0
    2.1584    2.9834    0.0000 C   0  0  0  0  0  0  0  0  0  0  0  0
    2.9834    2.9834    0.0000 O   0  0  0  0  0  0  0  0  0  0  0  0
    3.2383    2.1987    0.0000 N   0  0  0  0  0  0  0  0  0  0  0  0
    2.5709    1.7138    0.0000 C   0  0  0  0  0  0  0  0  0  0  0  0
    2.5709    0.8888    0.0000 C   0  0  0  0  0  0  0  0  0  0  0  0
    2.9834    0.1743    0.0000 C   0  0  0  0  0  0  0  0  0  0  0  0
    2.1584    0.1743    0.0000 C   0  0  0  0  0  0  0  0  0  0  0  0
  1  2  1  0  0  0  0
  2  3  2  0  0  0  0
  2  4  1  0  0  0  0
  4  5  2  0  0  0  0
  5  6  1  0  0  0  0
  6  7  1  0  0  0  0
  7  8  2  0  0  0  0
  4  8  1  0  0  0  0
  8  9  1  0  0  0  0
  9 10  1  0  0  0  0
 10 11  1  0  0  0  0
  9 11  1  0  0  0  0
M  END
>  <Catalog ID>
Z1216841456

>  <PlateID>
1198308-R-SPFL-09

>  <Well>
B10

>  <MW (desalted)>
153.135

>  <ClogP>
-0.040

>  <HBD>
1

>  <TPSA>
63.330

>  <RotBonds>
2

$$$$

            

 13 14  0  0  0  0            999 V2000
    2.1434   -0.4125    0.0000 O   0  0  0  0  0  0  0  0  0  0  0  0
    2.1434   -1.2375    0.0000 C   0  0  0  0  0  0  0  0  0  0  0  0
    2.8579   -1.6500    0.0000 C   0  0  0  0  0  0  0  0  0  0  0  0
    2.8579   -2.4750    0.0000 C   0  0  0  0  0  0  0  0  0  0  0  0
    2.1434   -2.8875    0.0000 C   0  0  0  0  0  0  0  0  0  0  0  0
    1.4289   -2.4750    0.0000 C   0  0  0  0  0  0  0  0  0  0  0  0
    1.4289   -1.6500    0.0000 C   0  0  0  0  0  0  0  0  0  0  0  0
    2.8579    0.0000    0.0000 C   0  0  0  0  0  0  0  0  0  0  0  0
    2.8579    0.8250    0.0000 C   0  0  0  0  0  0  0  0  0  0  0  0
    3.5724    1.2375    0.0000 C   0  0  0  0  0  0  0  0  0  0  0  0
    4.2868    0.8250    0.0000 C   0  0  0  0  0  0  0  0  0  0  0  0
    4.2868    0.0000    0.0000 N   0  0  0  0  0  0  0  0  0  0  0  0
    3.5724   -0.4125    0.0000 N   0  0  0  0  0  0  0  0  0  0  0  0
  1  2  1  0  0  0  0
  2  3  2  0  0  0  0
  3  4  1  0  0  0  0
  4  5  2  0  0  0  0
  5  6  1  0  0  0  0
  6  7  2  0  0  0  0
  2  7  1  0  0  0  0
  1  8  1  0  0  0  0
  8  9  2  0  0  0  0
  9 10  1  0  0  0  0
 10 11  2  0  0  0  0
 11 12  1  0  0  0  0
 12 13  2  0  0  0  0
  8 13  1  0  0  0  0
M  END
>  <Catalog ID>
Z1255500641

>  <PlateID>
1198308-R-SPFL-09

>  <Well>
B11

>  <MW (desalted)>
172.183

>  <ClogP>
1.516

>  <HBD>
0

>  <TPSA>
35.010

>  <RotBonds>
2

$$$$

            

 14 15  0  0  0  0            999 V2000
    0.6078    1.1759    0.0000 O   0  0  0  0  0  0  0  0  0  0  0  0
    1.3222    0.7634    0.0000 C   0  0  0  0  0  0  0  0  0  0  0  0
    1.3222   -0.0616    0.0000 O   0  0  0  0  0  0  0  0  0  0  0  0
    2.0367    1.1759    0.0000 C   0  0  0  0  0  0  0  0  0  0  0  0
    2.0367    2.0009    0.0000 C   0  0  0  0  0  0  0  0  0  0  0  0
    2.7512    2.4134    0.0000 C   0  0  0  0  0  0  0  0  0  0  0  0
    3.4656    2.0009    0.0000 C   0  0  0  0  0  0  0  0  0  0  0  0
    3.4656    1.1759    0.0000 C   0  0  0  0  0  0  0  0  0  0  0  0
    2.7512    0.7634    0.0000 C   0  0  0  0  0  0  0  0  0  0  0  0
    2.7512   -0.0616    0.0000 N   0  0  0  0  0  0  0  0  0  0  0  0
    3.4186   -0.5465    0.0000 C   0  0  0  0  0  0  0  0  0  0  0  0
    3.1637   -1.3312    0.0000 C   0  0  0  0  0  0  0  0  0  0  0  0
    2.3387   -1.3312    0.0000 C   0  0  0  0  0  0  0  0  0  0  0  0
    2.0837   -0.5465    0.0000 N   0  0  0  0  0  0  0  0  0  0  0  0
  1  2  1  0  0  0  0
  2  3  2  0  0  0  0
  2  4  1  0  0  0  0
  4  5  2  0  0  0  0
  5  6  1  0  0  0  0
  6  7  2  0  0  0  0
  7  8  1  0  0  0  0
  8  9  2  0  0  0  0
  4  9  1  0  0  0  0
  9 10  1  0  0  0  0
 10 11  1  0  0  0  0
 11 12  2  0  0  0  0
 12 13  1  0  0  0  0
 13 14  2  0  0  0  0
 10 14  1  0  0  0  0
M  END
>  <Catalog ID>
Z316122464

>  <PlateID>
1198308-R-SPFL-09

>  <Well>
C02

>  <MW (desalted)>
188.183

>  <ClogP>
2.180

>  <HBD>
1

>  <TPSA>
55.120

>  <RotBonds>
2

$$$$

            

 11 12  0  0  0  0            999 V2000
   -0.4529   -0.9694    0.0000 O   0  0  0  0  0  0  0  0  0  0  0  0
   -0.0404   -0.2549    0.0000 C   0  0  0  0  0  0  0  0  0  0  0  0
   -0.4529    0.4595    0.0000 O   0  0  0  0  0  0  0  0  0  0  0  0
    0.7846   -0.2549    0.0000 C   0  0  0  0  0  0  0  0  0  0  0  0
    1.2695    0.4125    0.0000 C   0  0  0  0  0  0  0  0  0  0  0  0
    2.0542    0.1576    0.0000 C   0  0  0  0  0  0  0  0  0  0  0  0
    2.8388    0.4125    0.0000 O   0  0  0  0  0  0  0  0  0  0  0  0
    3.3237   -0.2549    0.0000 C   0  0  0  0  0  0  0  0  0  0  0  0
    2.8388   -0.9224    0.0000 C   0  0  0  0  0  0  0  0  0  0  0  0
    2.0542   -0.6674    0.0000 C   0  0  0  0  0  0  0  0  0  0  0  0
    1.2695   -0.9224    0.0000 S   0  0  0  0  0  0  0  0  0  0  0  0
  1  2  1  0  0  0  0
  2  3  2  0  0  0  0
  2  4  1  0  0  0  0
  4  5  2  0  0  0  0
  5  6  1  0  0  0  0
  6  7  1  0  0  0  0
  7  8  1  0  0  0  0
  8  9  2  0  0  0  0
  9 10  1  0  0  0  0
  6 10  2  0  0  0  0
 10 11  1  0  0  0  0
  4 11  1  0  0  0  0
M  END
>  <Catalog ID>
Z1227757230

>  <PlateID>
1198308-R-SPFL-09

>  <Well>
C03

>  <MW (desalted)>
168.170

>  <ClogP>
2.419

>  <HBD>
1

>  <TPSA>
50.440

>  <RotBonds>
1

$$$$

            

 14 16  0  0  0  0            999 V2000
    0.0333   -1.4613    0.0000 C   0  0  0  0  0  0  0  0  0  0  0  0
    0.7478   -1.0488    0.0000 C   0  0  0  0  0  0  0  0  0  0  0  0
    0.8341   -0.2284    0.0000 S   0  0  0  0  0  0  0  0  0  0  0  0
    1.6410   -0.0568    0.0000 C   0  0  0  0  0  0  0  0  0  0  0  0
    2.0535    0.6576    0.0000 N   0  0  0  0  0  0  0  0  0  0  0  0
    2.8785    0.6576    0.0000 C   0  0  0  0  0  0  0  0  0  0  0  0
    3.2910   -0.0568    0.0000 N   0  0  0  0  0  0  0  0  0  0  0  0
    4.0980   -0.2284    0.0000 C   0  0  0  0  0  0  0  0  0  0  0  0
    4.1842   -1.0488    0.0000 N   0  0  0  0  0  0  0  0  0  0  0  0
    3.4306   -1.3844    0.0000 N   0  0  0  0  0  0  0  0  0  0  0  0
    2.8785   -0.7713    0.0000 C   0  0  0  0  0  0  0  0  0  0  0  0
    2.0535   -0.7713    0.0000 C   0  0  0  0  0  0  0  0  0  0  0  0
    1.5015   -1.3844    0.0000 C   0  0  0  0  0  0  0  0  0  0  0  0
    1.6730   -2.1914    0.0000 C   0  0  0  0  0  0  0  0  0  0  0  0
  1  2  1  0  0  0  0
  2  3  1  0  0  0  0
  3  4  1  0  0  0  0
  4  5  1  0  0  0  0
  5  6  2  0  0  0  0
  6  7  1  0  0  0  0
  7  8  1  0  0  0  0
  8  9  2  0  0  0  0
  9 10  1  0  0  0  0
 10 11  2  0  0  0  0
  7 11  1  0  0  0  0
 11 12  1  0  0  0  0
  4 12  2  0  0  0  0
 12 13  1  0  0  0  0
  2 13  2  0  0  0  0
 13 14  1  0  0  0  0
M  END
>  <Catalog ID>
Z56882391

>  <PlateID>
1198308-R-SPFL-09

>  <Well>
C04

>  <MW (desalted)>
204.252

>  <ClogP>
1.519

>  <HBD>
0

>  <TPSA>
43.080

>  <RotBonds>
0

$$$$

            

 12 13  0  0  0  0            999 V2000
    4.0668    2.3479    0.0000 C   0  0  0  0  0  0  0  0  0  0  0  0
    3.3523    1.9354    0.0000 C   0  0  0  0  0  0  0  0  0  0  0  0
    3.3523    1.1104    0.0000 C   0  0  0  0  0  0  0  0  0  0  0  0
    2.6378    0.6979    0.0000 C   0  0  0  0  0  0  0  0  0  0  0  0
    2.6378   -0.1271    0.0000 C   0  0  0  0  0  0  0  0  0  0  0  0
    1.9233    1.1104    0.0000 C   0  0  0  0  0  0  0  0  0  0  0  0
    1.1387    0.8555    0.0000 C   0  0  0  0  0  0  0  0  0  0  0  0
    0.8838    0.0709    0.0000 N   0  0  0  0  0  0  0  0  0  0  0  0
    0.6538    1.5229    0.0000 N   0  0  0  0  0  0  0  0  0  0  0  0
    1.1387    2.1904    0.0000 S   0  0  0  0  0  0  0  0  0  0  0  0
    1.9233    1.9354    0.0000 C   0  0  0  0  0  0  0  0  0  0  0  0
    2.6378    2.3479    0.0000 N   0  0  0  0  0  0  0  0  0  0  0  0
  1  2  1  0  0  0  0
  2  3  2  0  0  0  0
  3  4  1  0  0  0  0
  4  5  1  0  0  0  0
  4  6  2  0  0  0  0
  6  7  1  0  0  0  0
  7  8  1  0  0  0  0
  7  9  2  0  0  0  0
  9 10  1  0  0  0  0
 10 11  1  0  0  0  0
  6 11  1  0  0  0  0
 11 12  2  0  0  0  0
  2 12  1  0  0  0  0
M  END
>  <Catalog ID>
Z57842305

>  <PlateID>
1198308-R-SPFL-09

>  <Well>
C05

>  <MW (desalted)>
179.242

>  <ClogP>
1.633

>  <HBD>
1

>  <TPSA>
51.800

>  <RotBonds>
0

$$$$

            

 11 12  0  0  0  0            999 V2000
    0.0000   -1.6500    0.0000 C   0  0  0  0  0  0  0  0  0  0  0  0
    0.7145   -1.2375    0.0000 C   0  0  0  0  0  0  0  0  0  0  0  0
    0.7145   -0.4125    0.0000 C   0  0  0  0  0  0  0  0  0  0  0  0
    1.4289    0.0000    0.0000 O   0  0  0  0  0  0  0  0  0  0  0  0
    2.1434   -0.4125    0.0000 C   0  0  0  0  0  0  0  0  0  0  0  0
    2.8579    0.0000    0.0000 C   0  0  0  0  0  0  0  0  0  0  0  0
    3.5724   -0.4125    0.0000 C   0  0  0  0  0  0  0  0  0  0  0  0
    3.5724   -1.2375    0.0000 C   0  0  0  0  0  0  0  0  0  0  0  0
    2.8579   -1.6500    0.0000 C   0  0  0  0  0  0  0  0  0  0  0  0
    2.1434   -1.2375    0.0000 C   0  0  0  0  0  0  0  0  0  0  0  0
    1.4289   -1.6500    0.0000 N   0  0  0  0  0  0  0  0  0  0  0  0
  1  2  1  0  0  0  0
  2  3  1  0  0  0  0
  3  4  1  0  0  0  0
  4  5  1  0  0  0  0
  5  6  2  0  0  0  0
  6  7  1  0  0  0  0
  7  8  2  0  0  0  0
  8  9  1  0  0  0  0
  9 10  2  0  0  0  0
  5 10  1  0  0  0  0
 10 11  1  0  0  0  0
  2 11  1  0  0  0  0
M  END
>  <Catalog ID>
Z1201621516

>  <PlateID>
1198308-R-SPFL-09

>  <Well>
C06

>  <MW (desalted)>
149.190

>  <ClogP>
2.179

>  <HBD>
1

>  <TPSA>
21.260

>  <RotBonds>
0

$$$$

            

 11 12  0  0  0  0            999 V2000
    1.4289   -2.4750    0.0000 C   0  0  0  0  0  0  0  0  0  0  0  0
    1.4289   -1.6500    0.0000 N   0  0  0  0  0  0  0  0  0  0  0  0
    0.7145   -1.2375    0.0000 C   0  0  0  0  0  0  0  0  0  0  0  0
    0.7145   -0.4125    0.0000 C   0  0  0  0  0  0  0  0  0  0  0  0
    1.4289    0.0000    0.0000 N   0  0  0  0  0  0  0  0  0  0  0  0
    2.1434   -0.4125    0.0000 C   0  0  0  0  0  0  0  0  0  0  0  0
    2.8579    0.0000    0.0000 C   0  0  0  0  0  0  0  0  0  0  0  0
    3.5724   -0.4125    0.0000 N   0  0  0  0  0  0  0  0  0  0  0  0
    3.5724   -1.2375    0.0000 C   0  0  0  0  0  0  0  0  0  0  0  0
    2.8579   -1.6500    0.0000 C   0  0  0  0  0  0  0  0  0  0  0  0
    2.1434   -1.2375    0.0000 C   0  0  0  0  0  0  0  0  0  0  0  0
  1  2  1  0  0  0  0
  2  3  1  0  0  0  0
  3  4  1  0  0  0  0
  4  5  1  0  0  0  0
  5  6  1  0  0  0  0
  6  7  2  0  0  0  0
  7  8  1  0  0  0  0
  8  9  2  0  0  0  0
  9 10  1  0  0  0  0
 10 11  2  0  0  0  0
  2 11  1  0  0  0  0
  6 11  1  0  0  0  0
M  END
>  <Catalog ID>
Z1365408676

>  <PlateID>
1198308-R-SPFL-09

>  <Well>
C07

>  <MW (desalted)>
149.193

>  <ClogP>
1.866

>  <HBD>
1

>  <TPSA>
28.160

>  <RotBonds>
0

$$$$

            

 12 13  0  0  0  0            999 V2000
    0.0000   -2.4750    0.0000 C   0  0  0  0  0  0  0  0  0  0  0  0
    0.0000   -1.6500    0.0000 C   0  0  0  0  0  0  0  0  0  0  0  0
    0.7145   -1.2375    0.0000 C   0  0  0  0  0  0  0  0  0  0  0  0
    1.4289   -1.6500    0.0000 C   0  0  0  0  0  0  0  0  0  0  0  0
    1.4289   -2.4750    0.0000 C   0  0  0  0  0  0  0  0  0  0  0  0
    0.7145   -2.8875    0.0000 N   0  0  0  0  0  0  0  0  0  0  0  0
    0.7145   -0.4125    0.0000 C   0  0  0  0  0  0  0  0  0  0  0  0
    0.0000    0.0000    0.0000 C   0  0  0  0  0  0  0  0  0  0  0  0
    0.0000    0.8250    0.0000 C   0  0  0  0  0  0  0  0  0  0  0  0
    0.7145    1.2375    0.0000 C   0  0  0  0  0  0  0  0  0  0  0  0
    1.4289    0.8250    0.0000 C   0  0  0  0  0  0  0  0  0  0  0  0
    1.4289   -0.0000    0.0000 C   0  0  0  0  0  0  0  0  0  0  0  0
  1  2  1  0  0  0  0
  2  3  1  0  0  0  0
  3  4  2  0  0  0  0
  4  5  1  0  0  0  0
  5  6  1  0  0  0  0
  1  6  1  0  0  0  0
  3  7  1  0  0  0  0
  7  8  2  0  0  0  0
  8  9  1  0  0  0  0
  9 10  2  0  0  0  0
 10 11  1  0  0  0  0
 11 12  2  0  0  0  0
  7 12  1  0  0  0  0
M  END
>  <Catalog ID>
Z1742056028

>  <PlateID>
1198308-R-SPFL-09

>  <Well>
C08

>  <MW (desalted)>
159.228

>  <ClogP>
2.239

>  <HBD>
1

>  <TPSA>
12.030

>  <RotBonds>
1

$$$$

            

 11 11  0  0  0  0            999 V2000
   -0.7145    3.7125    0.0000 C   0  0  0  0  0  0  0  0  0  0  0  0
    0.0000    3.3000    0.0000 C   0  0  0  0  0  0  0  0  0  0  0  0
    0.7145    3.7125    0.0000 O   0  0  0  0  0  0  0  0  0  0  0  0
    0.0000    2.4750    0.0000 N   0  0  0  0  0  0  0  0  0  0  0  0
    0.7145    2.0625    0.0000 C   0  0  0  0  0  0  0  0  0  0  0  0
    0.7145    1.2375    0.0000 C   0  0  0  0  0  0  0  0  0  0  0  0
    1.4289    0.8250    0.0000 C   0  0  0  0  0  0  0  0  0  0  0  0
    1.4289   -0.0000    0.0000 C   0  0  0  0  0  0  0  0  0  0  0  0
    0.7145   -0.4125    0.0000 C   0  0  0  0  0  0  0  0  0  0  0  0
    0.0000    0.0000    0.0000 C   0  0  0  0  0  0  0  0  0  0  0  0
    0.0000    0.8250    0.0000 C   0  0  0  0  0  0  0  0  0  0  0  0
  1  2  1  0  0  0  0
  2  3  2  0  0  0  0
  2  4  1  0  0  0  0
  4  5  1  0  0  0  0
  5  6  1  0  0  0  0
  6  7  2  0  0  0  0
  7  8  1  0  0  0  0
  8  9  2  0  0  0  0
  9 10  1  0  0  0  0
 10 11  2  0  0  0  0
  6 11  1  0  0  0  0
M  END
>  <Catalog ID>
Z27749489

>  <PlateID>
1198308-R-SPFL-09

>  <Well>
C09

>  <MW (desalted)>
149.190

>  <ClogP>
0.950

>  <HBD>
1

>  <TPSA>
29.100

>  <RotBonds>
2

$$$$

            

 16 17  0  0  0  0            999 V2000
    2.8579    0.0000    0.0000 O   0  0  0  0  0  0  0  0  0  0  0  0
    3.5724   -0.4125    0.0000 C   0  0  0  0  0  0  0  0  0  0  0  0
    3.5724   -1.2375    0.0000 N   0  0  0  0  0  0  0  0  0  0  0  0
    2.8579   -1.6500    0.0000 C   0  0  0  0  0  0  0  0  0  0  0  0
    2.8579   -2.4750    0.0000 C   0  0  0  0  0  0  0  0  0  0  0  0
    3.5724   -2.8875    0.0000 C   0  0  0  0  0  0  0  0  0  0  0  0
    3.5724   -3.7125    0.0000 C   0  0  0  0  0  0  0  0  0  0  0  0
    2.8579   -4.1250    0.0000 C   0  0  0  0  0  0  0  0  0  0  0  0
    2.1434   -3.7125    0.0000 C   0  0  0  0  0  0  0  0  0  0  0  0
    2.1434   -2.8875    0.0000 N   0  0  0  0  0  0  0  0  0  0  0  0
    4.2868    0.0000    0.0000 C   0  0  0  0  0  0  0  0  0  0  0  0
    4.2868    0.8250    0.0000 C   0  0  0  0  0  0  0  0  0  0  0  0
    5.0013    1.2375    0.0000 C   0  0  0  0  0  0  0  0  0  0  0  0
    5.7158    0.8250    0.0000 C   0  0  0  0  0  0  0  0  0  0  0  0
    5.7158   -0.0000    0.0000 N   0  0  0  0  0  0  0  0  0  0  0  0
    5.0013   -0.4125    0.0000 C   0  0  0  0  0  0  0  0  0  0  0  0
  1  2  2  0  0  0  0
  2  3  1  0  0  0  0
  3  4  1  0  0  0  0
  4  5  1  0  0  0  0
  5  6  2  0  0  0  0
  6  7  1  0  0  0  0
  7  8  2  0  0  0  0
  8  9  1  0  0  0  0
  9 10  2  0  0  0  0
  5 10  1  0  0  0  0
  2 11  1  0  0  0  0
 11 12  2  0  0  0  0
 12 13  1  0  0  0  0
 13 14  2  0  0  0  0
 14 15  1  0  0  0  0
 15 16  2  0  0  0  0
 11 16  1  0  0  0  0
M  END
>  <Catalog ID>
Z30166372

>  <PlateID>
1198308-R-SPFL-09

>  <Well>
C10

>  <MW (desalted)>
213.235

>  <ClogP>
0.579

>  <HBD>
1

>  <TPSA>
54.880

>  <RotBonds>
3

$$$$

            

 10 10  0  0  0  0            999 V2000
    1.2822    2.3518    0.0000 C   0  0  0  0  0  0  0  0  0  0  0  0
    0.5678    1.9393    0.0000 C   0  0  0  0  0  0  0  0  0  0  0  0
    0.5678    1.1143    0.0000 C   0  0  0  0  0  0  0  0  0  0  0  0
    1.2352    0.6294    0.0000 N   0  0  0  0  0  0  0  0  0  0  0  0
    0.9803   -0.1553    0.0000 C   0  0  0  0  0  0  0  0  0  0  0  0
    0.1553   -0.1553    0.0000 C   0  0  0  0  0  0  0  0  0  0  0  0
   -0.0997    0.6294    0.0000 S   0  0  0  0  0  0  0  0  0  0  0  0
   -0.3297   -0.8227    0.0000 C   0  0  0  0  0  0  0  0  0  0  0  0
    0.0059   -1.5764    0.0000 O   0  0  0  0  0  0  0  0  0  0  0  0
   -1.1501   -0.7365    0.0000 O   0  0  0  0  0  0  0  0  0  0  0  0
  1  2  1  0  0  0  0
  2  3  1  0  0  0  0
  3  4  2  0  0  0  0
  4  5  1  0  0  0  0
  5  6  2  0  0  0  0
  6  7  1  0  0  0  0
  3  7  1  0  0  0  0
  6  8  1  0  0  0  0
  8  9  2  0  0  0  0
  8 10  1  0  0  0  0
M  END
>  <Catalog ID>
Z385373332

>  <PlateID>
1198308-R-SPFL-09

>  <Well>
C11

>  <MW (desalted)>
157.190

>  <ClogP>
1.659

>  <HBD>
1

>  <TPSA>
50.190

>  <RotBonds>
2

$$$$

            

 15 14  0  0  0  0            999 V2000
    0.0000    0.0000    0.0000 Cl  0  0  0  0  0  0  0  0  0  0  0  0
    2.0036    0.0000    0.0000 Cl  0  0  0  0  0  0  0  0  0  0  0  0
   -0.6595   -1.6500    0.0000 N   0  0  0  0  0  0  0  0  0  0  0  0
    0.0550   -2.0625    0.0000 C   0  0  0  0  0  0  0  0  0  0  0  0
    0.0550   -2.8875    0.0000 C   0  0  0  0  0  0  0  0  0  0  0  0
    0.7694   -3.3000    0.0000 C   0  0  0  0  0  0  0  0  0  0  0  0
    0.7694   -4.1250    0.0000 C   0  0  0  0  0  0  0  0  0  0  0  0
    0.0550   -4.5375    0.0000 C   0  0  0  0  0  0  0  0  0  0  0  0
   -0.6595   -4.1250    0.0000 C   0  0  0  0  0  0  0  0  0  0  0  0
   -0.6595   -3.3000    0.0000 C   0  0  0  0  0  0  0  0  0  0  0  0
    0.0550   -5.3625    0.0000 C   0  0  0  0  0  0  0  0  0  0  0  0
    0.7224   -5.8474    0.0000 C   0  0  0  0  0  0  0  0  0  0  0  0
    0.4675   -6.6320    0.0000 N   0  0  0  0  0  0  0  0  0  0  0  0
   -0.3575   -6.6320    0.0000 C   0  0  0  0  0  0  0  0  0  0  0  0
   -0.6125   -5.8474    0.0000 O   0  0  0  0  0  0  0  0  0  0  0  0
  3  4  1  0  0  0  0
  4  5  1  0  0  0  0
  5  6  2  0  0  0  0
  6  7  1  0  0  0  0
  7  8  2  0  0  0  0
  8  9  1  0  0  0  0
  9 10  2  0  0  0  0
  5 10  1  0  0  0  0
  8 11  1  0  0  0  0
 11 12  2  0  0  0  0
 12 13  1  0  0  0  0
 13 14  2  0  0  0  0
 14 15  1  0  0  0  0
 11 15  1  0  0  0  0
M  END
>  <Catalog ID>
Z2408399172

>  <PlateID>
1198308-R-SPFL-09

>  <Well>
D02

>  <MW (desalted)>
174.199

>  <ClogP>
0.871

>  <HBD>
1

>  <TPSA>
52.050

>  <RotBonds>
2

$$$$

            

 12 11  0  0  0  0            999 V2000
    0.0000    0.0000    0.0000 Cl  0  0  0  0  0  0  0  0  0  0  0  0
    2.0036    0.0000    0.0000 Cl  0  0  0  0  0  0  0  0  0  0  0  0
    1.7843   -1.6500    0.0000 N   0  0  0  0  0  0  0  0  0  0  0  0
    1.0698   -2.0625    0.0000 C   0  0  0  0  0  0  0  0  0  0  0  0
    1.0698   -2.8875    0.0000 C   0  0  0  0  0  0  0  0  0  0  0  0
    0.3553   -3.3000    0.0000 C   0  0  0  0  0  0  0  0  0  0  0  0
   -0.3591   -2.8875    0.0000 C   0  0  0  0  0  0  0  0  0  0  0  0
   -1.1438   -3.1424    0.0000 N   0  0  0  0  0  0  0  0  0  0  0  0
   -1.6287   -2.4750    0.0000 C   0  0  0  0  0  0  0  0  0  0  0  0
   -1.1438   -1.8076    0.0000 S   0  0  0  0  0  0  0  0  0  0  0  0
   -0.3591   -2.0625    0.0000 C   0  0  0  0  0  0  0  0  0  0  0  0
    0.3553   -1.6500    0.0000 C   0  0  0  0  0  0  0  0  0  0  0  0
  3  4  1  0  0  0  0
  4  5  1  0  0  0  0
  5  6  1  0  0  0  0
  6  7  1  0  0  0  0
  7  8  1  0  0  0  0
  8  9  2  0  0  0  0
  9 10  1  0  0  0  0
 10 11  1  0  0  0  0
  7 11  2  0  0  0  0
 11 12  1  0  0  0  0
  4 12  1  0  0  0  0
M  END
>  <Catalog ID>
Z2310679110

>  <PlateID>
1198308-R-SPFL-09

>  <Well>
D03

>  <MW (desalted)>
154.233

>  <ClogP>
0.221

>  <HBD>
1

>  <TPSA>
38.910

>  <RotBonds>
0

$$$$

            

 11 11  0  0  0  0            999 V2000
    0.0000    2.4750    0.0000 C   0  0  0  0  0  0  0  0  0  0  0  0
    0.7145    2.0625    0.0000 O   0  0  0  0  0  0  0  0  0  0  0  0
    0.7145    1.2375    0.0000 C   0  0  0  0  0  0  0  0  0  0  0  0
    1.4289    0.8250    0.0000 C   0  0  0  0  0  0  0  0  0  0  0  0
    1.4289   -0.0000    0.0000 C   0  0  0  0  0  0  0  0  0  0  0  0
    0.7145   -0.4125    0.0000 C   0  0  0  0  0  0  0  0  0  0  0  0
    0.0000    0.0000    0.0000 C   0  0  0  0  0  0  0  0  0  0  0  0
    0.0000    0.8250    0.0000 C   0  0  0  0  0  0  0  0  0  0  0  0
    0.7145   -1.2375    0.0000 C   0  0  0  0  0  0  0  0  0  0  0  0
    1.4289   -1.6500    0.0000 O   0  0  0  0  0  0  0  0  0  0  0  0
   -0.0000   -1.6500    0.0000 O   0  0  0  0  0  0  0  0  0  0  0  0
  1  2  1  0  0  0  0
  2  3  1  0  0  0  0
  3  4  2  0  0  0  0
  4  5  1  0  0  0  0
  5  6  2  0  0  0  0
  6  7  1  0  0  0  0
  7  8  2  0  0  0  0
  3  8  1  0  0  0  0
  6  9  1  0  0  0  0
  9 10  2  0  0  0  0
  9 11  1  0  0  0  0
M  END
>  <Catalog ID>
Z56931884

>  <PlateID>
1198308-R-SPFL-09

>  <Well>
D04

>  <MW (desalted)>
152.147

>  <ClogP>
2.023

>  <HBD>
1

>  <TPSA>
46.530

>  <RotBonds>
2

$$$$

            

 10 10  0  0  0  0            999 V2000
    1.2822    2.3518    0.0000 O   0  0  0  0  0  0  0  0  0  0  0  0
    0.5678    1.9393    0.0000 C   0  0  0  0  0  0  0  0  0  0  0  0
    0.5678    1.1143    0.0000 C   0  0  0  0  0  0  0  0  0  0  0  0
    1.2352    0.6294    0.0000 N   0  0  0  0  0  0  0  0  0  0  0  0
    0.9803   -0.1553    0.0000 C   0  0  0  0  0  0  0  0  0  0  0  0
    0.1553   -0.1553    0.0000 C   0  0  0  0  0  0  0  0  0  0  0  0
   -0.0997    0.6294    0.0000 N   0  0  0  0  0  0  0  0  0  0  0  0
   -0.8843    0.8843    0.0000 C   0  0  0  0  0  0  0  0  0  0  0  0
   -1.4974    0.3323    0.0000 F   0  0  0  0  0  0  0  0  0  0  0  0
   -1.0558    1.6913    0.0000 F   0  0  0  0  0  0  0  0  0  0  0  0
  1  2  1  0  0  0  0
  2  3  1  0  0  0  0
  3  4  2  0  0  0  0
  4  5  1  0  0  0  0
  5  6  2  0  0  0  0
  6  7  1  0  0  0  0
  3  7  1  0  0  0  0
  7  8  1  0  0  0  0
  8  9  1  0  0  0  0
  8 10  1  0  0  0  0
M  END
>  <Catalog ID>
Z155154006

>  <PlateID>
1198308-R-SPFL-09

>  <Well>
D05

>  <MW (desalted)>
148.111

>  <ClogP>
-0.755

>  <HBD>
1

>  <TPSA>
38.050

>  <RotBonds>
2

$$$$

            

 12 13  0  0  0  0            999 V2000
   -0.1105    0.4125    0.0000 C   0  0  0  0  0  0  0  0  0  0  0  0
    0.3020    1.1270    0.0000 C   0  0  0  0  0  0  0  0  0  0  0  0
    1.1270    1.1270    0.0000 O   0  0  0  0  0  0  0  0  0  0  0  0
    1.5395    0.4125    0.0000 C   0  0  0  0  0  0  0  0  0  0  0  0
    1.1270   -0.3020    0.0000 C   0  0  0  0  0  0  0  0  0  0  0  0
    0.3020   -0.3020    0.0000 N   0  0  0  0  0  0  0  0  0  0  0  0
    1.8974    1.1558    0.0000 C   0  0  0  0  0  0  0  0  0  0  0  0
    2.7017    1.3394    0.0000 C   0  0  0  0  0  0  0  0  0  0  0  0
    3.3468    0.8250    0.0000 C   0  0  0  0  0  0  0  0  0  0  0  0
    3.3468   -0.0000    0.0000 C   0  0  0  0  0  0  0  0  0  0  0  0
    2.7017   -0.5144    0.0000 C   0  0  0  0  0  0  0  0  0  0  0  0
    1.8974   -0.3308    0.0000 C   0  0  0  0  0  0  0  0  0  0  0  0
  1  2  1  0  0  0  0
  2  3  1  0  0  0  0
  3  4  1  0  0  0  0
  4  5  1  0  0  0  0
  5  6  1  0  0  0  0
  1  6  1  0  0  0  0
  4  7  1  0  0  0  0
  7  8  1  0  0  0  0
  8  9  1  0  0  0  0
  9 10  1  0  0  0  0
 10 11  1  0  0  0  0
 11 12  1  0  0  0  0
  4 12  1  0  0  0  0
M  END
>  <Catalog ID>
Z959274738

>  <PlateID>
1198308-R-SPFL-09

>  <Well>
D06

>  <MW (desalted)>
169.264

>  <ClogP>
2.142

>  <HBD>
1

>  <TPSA>
21.260

>  <RotBonds>
0

$$$$

            

 11 11  0  0  0  0            999 V2000
    1.2822    2.3518    0.0000 C   0  0  0  0  0  0  0  0  0  0  0  0
    0.5678    1.9393    0.0000 C   0  0  0  0  0  0  0  0  0  0  0  0
    0.5678    1.1143    0.0000 C   0  0  0  0  0  0  0  0  0  0  0  0
    1.2352    0.6294    0.0000 N   0  0  0  0  0  0  0  0  0  0  0  0
    0.9803   -0.1553    0.0000 C   0  0  0  0  0  0  0  0  0  0  0  0
    0.1553   -0.1553    0.0000 C   0  0  0  0  0  0  0  0  0  0  0  0
   -0.0997    0.6294    0.0000 N   0  0  0  0  0  0  0  0  0  0  0  0
   -0.8843    0.8843    0.0000 C   0  0  0  0  0  0  0  0  0  0  0  0
   -1.0558    1.6913    0.0000 C   0  0  0  0  0  0  0  0  0  0  0  0
   -1.8405    1.9462    0.0000 F   0  0  0  0  0  0  0  0  0  0  0  0
   -0.4427    2.2433    0.0000 F   0  0  0  0  0  0  0  0  0  0  0  0
  1  2  1  0  0  0  0
  2  3  1  0  0  0  0
  3  4  2  0  0  0  0
  4  5  1  0  0  0  0
  5  6  2  0  0  0  0
  6  7  1  0  0  0  0
  3  7  1  0  0  0  0
  7  8  1  0  0  0  0
  8  9  1  0  0  0  0
  9 10  1  0  0  0  0
  9 11  1  0  0  0  0
M  END
>  <Catalog ID>
Z1157797143

>  <PlateID>
1198308-R-SPFL-09

>  <Well>
D07

>  <MW (desalted)>
160.165

>  <ClogP>
1.360

>  <HBD>
0

>  <TPSA>
17.820

>  <RotBonds>
3

$$$$

            

 12 12  0  0  0  0            999 V2000
    0.0000    0.0000    0.0000 Cl  0  0  0  0  0  0  0  0  0  0  0  0
    5.1219   -0.0000    0.0000 C   0  0  0  0  0  0  0  0  0  0  0  0
    4.7640   -0.7433    0.0000 C   0  0  0  0  0  0  0  0  0  0  0  0
    3.9597   -0.9269    0.0000 O   0  0  0  0  0  0  0  0  0  0  0  0
    3.3147   -0.4125    0.0000 C   0  0  0  0  0  0  0  0  0  0  0  0
    2.6002   -0.8250    0.0000 C   0  0  0  0  0  0  0  0  0  0  0  0
    1.8857   -0.4125    0.0000 C   0  0  0  0  0  0  0  0  0  0  0  0
    1.8857    0.4125    0.0000 C   0  0  0  0  0  0  0  0  0  0  0  0
    2.6002    0.8250    0.0000 C   0  0  0  0  0  0  0  0  0  0  0  0
    3.3147    0.4125    0.0000 C   0  0  0  0  0  0  0  0  0  0  0  0
    3.9597    0.9269    0.0000 C   0  0  0  0  0  0  0  0  0  0  0  0
    4.7640    0.7433    0.0000 N   0  0  0  0  0  0  0  0  0  0  0  0
  2  3  1  0  0  0  0
  3  4  1  0  0  0  0
  4  5  1  0  0  0  0
  5  6  2  0  0  0  0
  6  7  1  0  0  0  0
  7  8  2  0  0  0  0
  8  9  1  0  0  0  0
  9 10  2  0  0  0  0
  5 10  1  0  0  0  0
 10 11  1  0  0  0  0
 11 12  1  0  0  0  0
  2 12  1  0  0  0  0
M  END
>  <Catalog ID>
Z355445126

>  <PlateID>
1198308-R-SPFL-09

>  <Well>
D08

>  <MW (desalted)>
149.190

>  <ClogP>
1.295

>  <HBD>
1

>  <TPSA>
21.260

>  <RotBonds>
0

$$$$

            

 12 12  0  0  0  0            999 V2000
    0.0000    0.0000    0.0000 Cl  0  0  0  0  0  0  0  0  0  0  0  0
    2.3571   -0.6495    0.0000 N   0  0  0  0  0  0  0  0  0  0  0  0
    2.7696    0.0650    0.0000 C   0  0  0  0  0  0  0  0  0  0  0  0
    3.5946    0.0650    0.0000 C   0  0  0  0  0  0  0  0  0  0  0  0
    4.0796    0.7324    0.0000 N   0  0  0  0  0  0  0  0  0  0  0  0
    4.8642    0.4775    0.0000 C   0  0  0  0  0  0  0  0  0  0  0  0
    5.5787    0.8900    0.0000 C   0  0  0  0  0  0  0  0  0  0  0  0
    6.2931    0.4775    0.0000 C   0  0  0  0  0  0  0  0  0  0  0  0
    6.2931   -0.3475    0.0000 C   0  0  0  0  0  0  0  0  0  0  0  0
    5.5787   -0.7600    0.0000 C   0  0  0  0  0  0  0  0  0  0  0  0
    4.8642   -0.3475    0.0000 C   0  0  0  0  0  0  0  0  0  0  0  0
    4.0796   -0.6025    0.0000 S   0  0  0  0  0  0  0  0  0  0  0  0
  2  3  1  0  0  0  0
  3  4  1  0  0  0  0
  4  5  2  0  0  0  0
  5  6  1  0  0  0  0
  6  7  2  0  0  0  0
  7  8  1  0  0  0  0
  8  9  2  0  0  0  0
  9 10  1  0  0  0  0
 10 11  2  0  0  0  0
  6 11  1  0  0  0  0
 11 12  1  0  0  0  0
  4 12  1  0  0  0  0
M  END
>  <Catalog ID>
Z166630948

>  <PlateID>
1198308-R-SPFL-09

>  <Well>
D09

>  <MW (desalted)>
164.228

>  <ClogP>
1.032

>  <HBD>
1

>  <TPSA>
38.910

>  <RotBonds>
1

$$$$

            

 11 12  0  0  0  0            999 V2000
    0.8838   -2.1500    0.0000 C   0  0  0  0  0  0  0  0  0  0  0  0
    1.1387   -1.3654    0.0000 N   0  0  0  0  0  0  0  0  0  0  0  0
    0.6538   -0.6979    0.0000 C   0  0  0  0  0  0  0  0  0  0  0  0
    1.1387   -0.0305    0.0000 N   0  0  0  0  0  0  0  0  0  0  0  0
    1.9233   -0.2854    0.0000 C   0  0  0  0  0  0  0  0  0  0  0  0
    2.6378    0.1271    0.0000 C   0  0  0  0  0  0  0  0  0  0  0  0
    3.3523   -0.2854    0.0000 C   0  0  0  0  0  0  0  0  0  0  0  0
    4.0668    0.1271    0.0000 F   0  0  0  0  0  0  0  0  0  0  0  0
    3.3523   -1.1104    0.0000 C   0  0  0  0  0  0  0  0  0  0  0  0
    2.6378   -1.5229    0.0000 C   0  0  0  0  0  0  0  0  0  0  0  0
    1.9233   -1.1104    0.0000 C   0  0  0  0  0  0  0  0  0  0  0  0
  1  2  1  0  0  0  0
  2  3  1  0  0  0  0
  3  4  2  0  0  0  0
  4  5  1  0  0  0  0
  5  6  2  0  0  0  0
  6  7  1  0  0  0  0
  7  8  1  0  0  0  0
  7  9  2  0  0  0  0
  9 10  1  0  0  0  0
 10 11  2  0  0  0  0
  2 11  1  0  0  0  0
  5 11  1  0  0  0  0
M  END
>  <Catalog ID>
Z1255464709

>  <PlateID>
1198308-R-SPFL-09

>  <Well>
D10

>  <MW (desalted)>
150.153

>  <ClogP>
1.750

>  <HBD>
0

>  <TPSA>
17.820

>  <RotBonds>
0

$$$$

            

 13 13  0  0  0  0            999 V2000
    1.2822    3.1768    0.0000 O   0  0  0  0  0  0  0  0  0  0  0  0
    1.2822    2.3518    0.0000 C   0  0  0  0  0  0  0  0  0  0  0  0
    1.9967    1.9393    0.0000 O   0  0  0  0  0  0  0  0  0  0  0  0
    0.5678    1.9393    0.0000 C   0  0  0  0  0  0  0  0  0  0  0  0
    0.5678    1.1143    0.0000 N   0  0  0  0  0  0  0  0  0  0  0  0
    1.2352    0.6294    0.0000 C   0  0  0  0  0  0  0  0  0  0  0  0
    0.9803   -0.1553    0.0000 C   0  0  0  0  0  0  0  0  0  0  0  0
    0.1553   -0.1553    0.0000 C   0  0  0  0  0  0  0  0  0  0  0  0
   -0.0997    0.6294    0.0000 N   0  0  0  0  0  0  0  0  0  0  0  0
   -0.3297   -0.8227    0.0000 C   0  0  0  0  0  0  0  0  0  0  0  0
   -0.8146   -1.4901    0.0000 F   0  0  0  0  0  0  0  0  0  0  0  0
   -0.9971   -0.3378    0.0000 F   0  0  0  0  0  0  0  0  0  0  0  0
    0.3378   -1.3076    0.0000 F   0  0  0  0  0  0  0  0  0  0  0  0
  1  2  1  0  0  0  0
  2  3  2  0  0  0  0
  2  4  1  0  0  0  0
  4  5  1  0  0  0  0
  5  6  1  0  0  0  0
  6  7  2  0  0  0  0
  7  8  1  0  0  0  0
  8  9  2  0  0  0  0
  5  9  1  0  0  0  0
  8 10  1  0  0  0  0
 10 11  1  0  0  0  0
 10 12  1  0  0  0  0
 10 13  1  0  0  0  0
M  END
>  <Catalog ID>
Z56968760

>  <PlateID>
1198308-R-SPFL-09

>  <Well>
D11

>  <MW (desalted)>
194.111

>  <ClogP>
0.907

>  <HBD>
1

>  <TPSA>
55.120

>  <RotBonds>
3

$$$$

            

 15 16  0  0  0  0            999 V2000
   -0.0980   -0.5558    0.0000 N   0  0  0  0  0  0  0  0  0  0  0  0
    0.7145   -0.4125    0.0000 C   0  0  0  0  0  0  0  0  0  0  0  0
    0.9966    0.3627    0.0000 O   0  0  0  0  0  0  0  0  0  0  0  0
    1.2448   -1.0445    0.0000 C   0  0  0  0  0  0  0  0  0  0  0  0
    1.9592   -1.4570    0.0000 C   0  0  0  0  0  0  0  0  0  0  0  0
    1.9592   -2.2820    0.0000 C   0  0  0  0  0  0  0  0  0  0  0  0
    1.2448   -2.6945    0.0000 C   0  0  0  0  0  0  0  0  0  0  0  0
    0.5303   -2.2820    0.0000 C   0  0  0  0  0  0  0  0  0  0  0  0
    0.5303   -1.4570    0.0000 C   0  0  0  0  0  0  0  0  0  0  0  0
    1.7751   -0.4125    0.0000 C   0  0  0  0  0  0  0  0  0  0  0  0
    1.4929    0.3627    0.0000 C   0  0  0  0  0  0  0  0  0  0  0  0
    2.0232    0.9947    0.0000 C   0  0  0  0  0  0  0  0  0  0  0  0
    2.8357    0.8515    0.0000 N   0  0  0  0  0  0  0  0  0  0  0  0
    3.1178    0.0762    0.0000 C   0  0  0  0  0  0  0  0  0  0  0  0
    2.5875   -0.5558    0.0000 C   0  0  0  0  0  0  0  0  0  0  0  0
  1  2  1  0  0  0  0
  2  3  2  0  0  0  0
  2  4  1  0  0  0  0
  4  5  1  0  0  0  0
  5  6  1  0  0  0  0
  6  7  1  0  0  0  0
  7  8  1  0  0  0  0
  8  9  1  0  0  0  0
  4  9  1  0  0  0  0
  4 10  1  0  0  0  0
 10 11  2  0  0  0  0
 11 12  1  0  0  0  0
 12 13  2  0  0  0  0
 13 14  1  0  0  0  0
 14 15  2  0  0  0  0
 10 15  1  0  0  0  0
M  END
>  <Catalog ID>
Z2177113188

>  <PlateID>
1198308-R-SPFL-09

>  <Well>
E02

>  <MW (desalted)>
204.268

>  <ClogP>
0.978

>  <HBD>
1

>  <TPSA>
55.980

>  <RotBonds>
2

$$$$

            

 13 14  0  0  0  0            999 V2000
    0.0000   -2.4750    0.0000 C   0  0  0  0  0  0  0  0  0  0  0  0
    0.0000   -1.6500    0.0000 O   0  0  0  0  0  0  0  0  0  0  0  0
    0.7145   -1.2375    0.0000 C   0  0  0  0  0  0  0  0  0  0  0  0
    0.7145   -0.4125    0.0000 C   0  0  0  0  0  0  0  0  0  0  0  0
    1.4289    0.0000    0.0000 C   0  0  0  0  0  0  0  0  0  0  0  0
    2.1434   -0.4125    0.0000 C   0  0  0  0  0  0  0  0  0  0  0  0
    2.8579    0.0000    0.0000 C   0  0  0  0  0  0  0  0  0  0  0  0
    2.8579    0.8250    0.0000 O   0  0  0  0  0  0  0  0  0  0  0  0
    3.5724   -0.4125    0.0000 C   0  0  0  0  0  0  0  0  0  0  0  0
    3.5724   -1.2375    0.0000 C   0  0  0  0  0  0  0  0  0  0  0  0
    2.8579   -1.6500    0.0000 N   0  0  0  0  0  0  0  0  0  0  0  0
    2.1434   -1.2375    0.0000 C   0  0  0  0  0  0  0  0  0  0  0  0
    1.4289   -1.6500    0.0000 C   0  0  0  0  0  0  0  0  0  0  0  0
  1  2  1  0  0  0  0
  2  3  1  0  0  0  0
  3  4  1  0  0  0  0
  4  5  2  0  0  0  0
  5  6  1  0  0  0  0
  6  7  2  0  0  0  0
  7  8  1  0  0  0  0
  7  9  1  0  0  0  0
  9 10  2  0  0  0  0
 10 11  1  0  0  0  0
 11 12  2  0  0  0  0
  6 12  1  0  0  0  0
 12 13  1  0  0  0  0
  3 13  2  0  0  0  0
M  END
>  <Catalog ID>
Z381338442

>  <PlateID>
1198308-R-SPFL-09

>  <Well>
E03

>  <MW (desalted)>
175.184

>  <ClogP>
2.631

>  <HBD>
1

>  <TPSA>
42.350

>  <RotBonds>
1

$$$$

            

 13 14  0  0  0  0            999 V2000
    4.7812    3.5854    0.0000 C   0  0  0  0  0  0  0  0  0  0  0  0
    4.0668    3.1729    0.0000 C   0  0  0  0  0  0  0  0  0  0  0  0
    3.3523    3.5854    0.0000 O   0  0  0  0  0  0  0  0  0  0  0  0
    4.0668    2.3479    0.0000 N   0  0  0  0  0  0  0  0  0  0  0  0
    3.3523    1.9354    0.0000 C   0  0  0  0  0  0  0  0  0  0  0  0
    3.3523    1.1104    0.0000 C   0  0  0  0  0  0  0  0  0  0  0  0
    2.6378    0.6979    0.0000 C   0  0  0  0  0  0  0  0  0  0  0  0
    1.9233    1.1104    0.0000 C   0  0  0  0  0  0  0  0  0  0  0  0
    1.1387    0.8555    0.0000 O   0  0  0  0  0  0  0  0  0  0  0  0
    0.6538    1.5229    0.0000 C   0  0  0  0  0  0  0  0  0  0  0  0
    1.1387    2.1904    0.0000 O   0  0  0  0  0  0  0  0  0  0  0  0
    1.9233    1.9354    0.0000 C   0  0  0  0  0  0  0  0  0  0  0  0
    2.6378    2.3479    0.0000 C   0  0  0  0  0  0  0  0  0  0  0  0
  1  2  1  0  0  0  0
  2  3  2  0  0  0  0
  2  4  1  0  0  0  0
  4  5  1  0  0  0  0
  5  6  2  0  0  0  0
  6  7  1  0  0  0  0
  7  8  2  0  0  0  0
  8  9  1  0  0  0  0
  9 10  1  0  0  0  0
 10 11  1  0  0  0  0
 11 12  1  0  0  0  0
  8 12  1  0  0  0  0
 12 13  2  0  0  0  0
  5 13  1  0  0  0  0
M  END
>  <Catalog ID>
Z27647423

>  <PlateID>
1198308-R-SPFL-09

>  <Well>
E04

>  <MW (desalted)>
179.173

>  <ClogP>
1.218

>  <HBD>
1

>  <TPSA>
47.560

>  <RotBonds>
1

$$$$

            

 12 13  0  0  0  0            999 V2000
    0.7145   -2.8875    0.0000 C   0  0  0  0  0  0  0  0  0  0  0  0
    0.0000   -2.4750    0.0000 C   0  0  0  0  0  0  0  0  0  0  0  0
    0.0000   -1.6500    0.0000 C   0  0  0  0  0  0  0  0  0  0  0  0
    0.7145   -1.2375    0.0000 C   0  0  0  0  0  0  0  0  0  0  0  0
    1.4289   -1.6500    0.0000 N   0  0  0  0  0  0  0  0  0  0  0  0
    1.4289   -2.4750    0.0000 C   0  0  0  0  0  0  0  0  0  0  0  0
    0.7145   -0.4125    0.0000 C   0  0  0  0  0  0  0  0  0  0  0  0
    0.0000    0.0000    0.0000 C   0  0  0  0  0  0  0  0  0  0  0  0
    0.0000    0.8250    0.0000 C   0  0  0  0  0  0  0  0  0  0  0  0
    0.7145    1.2375    0.0000 C   0  0  0  0  0  0  0  0  0  0  0  0
    1.4289    0.8250    0.0000 N   0  0  0  0  0  0  0  0  0  0  0  0
    1.4289   -0.0000    0.0000 C   0  0  0  0  0  0  0  0  0  0  0  0
  1  2  2  0  0  0  0
  2  3  1  0  0  0  0
  3  4  2  0  0  0  0
  4  5  1  0  0  0  0
  5  6  2  0  0  0  0
  1  6  1  0  0  0  0
  4  7  1  0  0  0  0
  7  8  2  0  0  0  0
  8  9  1  0  0  0  0
  9 10  2  0  0  0  0
 10 11  1  0  0  0  0
 11 12  2  0  0  0  0
  7 12  1  0  0  0  0
M  END
>  <Catalog ID>
Z1187786372

>  <PlateID>
1198308-R-SPFL-09

>  <Well>
E05

>  <MW (desalted)>
156.184

>  <ClogP>
1.354

>  <HBD>
0

>  <TPSA>
25.780

>  <RotBonds>
1

$$$$

            

 13 14  0  0  0  0            999 V2000
    2.0367   -0.4741    0.0000 C   0  0  0  0  0  0  0  0  0  0  0  0
    2.0367   -1.2991    0.0000 C   0  0  0  0  0  0  0  0  0  0  0  0
    2.7041   -1.7840    0.0000 C   0  0  0  0  0  0  0  0  0  0  0  0
    2.4492   -2.5687    0.0000 S   0  0  0  0  0  0  0  0  0  0  0  0
    1.6242   -2.5687    0.0000 C   0  0  0  0  0  0  0  0  0  0  0  0
    1.1393   -3.2361    0.0000 C   0  0  0  0  0  0  0  0  0  0  0  0
    0.3188   -3.1499    0.0000 N   0  0  0  0  0  0  0  0  0  0  0  0
   -0.1661   -3.8173    0.0000 C   0  0  0  0  0  0  0  0  0  0  0  0
   -0.9866   -3.7311    0.0000 C   0  0  0  0  0  0  0  0  0  0  0  0
   -1.3222   -2.9774    0.0000 N   0  0  0  0  0  0  0  0  0  0  0  0
   -0.8372   -2.3099    0.0000 C   0  0  0  0  0  0  0  0  0  0  0  0
   -0.0168   -2.3962    0.0000 C   0  0  0  0  0  0  0  0  0  0  0  0
    1.3693   -1.7840    0.0000 N   0  0  0  0  0  0  0  0  0  0  0  0
  1  2  1  0  0  0  0
  2  3  2  0  0  0  0
  3  4  1  0  0  0  0
  4  5  1  0  0  0  0
  5  6  1  0  0  0  0
  6  7  1  0  0  0  0
  7  8  1  0  0  0  0
  8  9  1  0  0  0  0
  9 10  1  0  0  0  0
 10 11  1  0  0  0  0
 11 12  1  0  0  0  0
  7 12  1  0  0  0  0
  5 13  2  0  0  0  0
  2 13  1  0  0  0  0
M  END
>  <Catalog ID>
Z821124924

>  <PlateID>
1198308-R-SPFL-09

>  <Well>
E06

>  <MW (desalted)>
197.301

>  <ClogP>
0.718

>  <HBD>
1

>  <TPSA>
28.160

>  <RotBonds>
2

$$$$

            

 14 15  0  0  0  0            999 V2000
    2.3183   -1.1364    0.0000 C   0  0  0  0  0  0  0  0  0  0  0  0
    2.3183   -1.9614    0.0000 C   0  0  0  0  0  0  0  0  0  0  0  0
    2.9858   -2.4463    0.0000 N   0  0  0  0  0  0  0  0  0  0  0  0
    2.7308   -3.2309    0.0000 C   0  0  0  0  0  0  0  0  0  0  0  0
    3.2158   -3.8983    0.0000 N   0  0  0  0  0  0  0  0  0  0  0  0
    4.0362   -3.8121    0.0000 C   0  0  0  0  0  0  0  0  0  0  0  0
    4.5212   -4.4795    0.0000 C   0  0  0  0  0  0  0  0  0  0  0  0
    5.3462   -4.4795    0.0000 C   0  0  0  0  0  0  0  0  0  0  0  0
    5.6011   -5.2642    0.0000 C   0  0  0  0  0  0  0  0  0  0  0  0
    4.9337   -5.7491    0.0000 S   0  0  0  0  0  0  0  0  0  0  0  0
    4.2662   -5.2642    0.0000 C   0  0  0  0  0  0  0  0  0  0  0  0
    1.9058   -3.2309    0.0000 N   0  0  0  0  0  0  0  0  0  0  0  0
    1.4209   -3.8983    0.0000 C   0  0  0  0  0  0  0  0  0  0  0  0
    1.6509   -2.4463    0.0000 N   0  0  0  0  0  0  0  0  0  0  0  0
  1  2  1  0  0  0  0
  2  3  1  0  0  0  0
  3  4  2  0  0  0  0
  4  5  1  0  0  0  0
  5  6  1  0  0  0  0
  6  7  1  0  0  0  0
  7  8  1  0  0  0  0
  8  9  2  0  0  0  0
  9 10  1  0  0  0  0
 10 11  1  0  0  0  0
  7 11  2  0  0  0  0
  4 12  1  0  0  0  0
 12 13  1  0  0  0  0
 12 14  1  0  0  0  0
  2 14  2  0  0  0  0
M  END
>  <Catalog ID>
Z1699556990

>  <PlateID>
1198308-R-SPFL-09

>  <Well>
E07

>  <MW (desalted)>
208.283

>  <ClogP>
1.368

>  <HBD>
1

>  <TPSA>
42.740

>  <RotBonds>
3

$$$$

            

 12 11  0  0  0  0            999 V2000
    0.0000    0.0000    0.0000 Cl  0  0  0  0  0  0  0  0  0  0  0  0
    2.4823    2.2875    0.0000 O   0  0  0  0  0  0  0  0  0  0  0  0
    2.4823    1.4625    0.0000 C   0  0  0  0  0  0  0  0  0  0  0  0
    1.7679    1.0500    0.0000 O   0  0  0  0  0  0  0  0  0  0  0  0
    3.1968    1.0500    0.0000 C   0  0  0  0  0  0  0  0  0  0  0  0
    3.1968    0.2250    0.0000 C   0  0  0  0  0  0  0  0  0  0  0  0
    3.9113   -0.1875    0.0000 C   0  0  0  0  0  0  0  0  0  0  0  0
    3.9113   -1.0125    0.0000 C   0  0  0  0  0  0  0  0  0  0  0  0
    3.1968   -1.4250    0.0000 C   0  0  0  0  0  0  0  0  0  0  0  0
    3.1968   -2.2500    0.0000 F   0  0  0  0  0  0  0  0  0  0  0  0
    2.4823   -1.0125    0.0000 C   0  0  0  0  0  0  0  0  0  0  0  0
    2.4823   -0.1875    0.0000 N   0  0  0  0  0  0  0  0  0  0  0  0
  2  3  1  0  0  0  0
  3  4  2  0  0  0  0
  3  5  1  0  0  0  0
  5  6  1  0  0  0  0
  6  7  2  0  0  0  0
  7  8  1  0  0  0  0
  8  9  2  0  0  0  0
  9 10  1  0  0  0  0
  9 11  1  0  0  0  0
 11 12  2  0  0  0  0
  6 12  1  0  0  0  0
M  END
>  <Catalog ID>
Z1945984141

>  <PlateID>
1198308-R-SPFL-09

>  <Well>
E08

>  <MW (desalted)>
155.126

>  <ClogP>
0.144

>  <HBD>
1

>  <TPSA>
50.190

>  <RotBonds>
2

$$$$

            

 13 14  0  0  0  0            999 V2000
    0.7145   -2.8875    0.0000 O   0  0  0  0  0  0  0  0  0  0  0  0
    1.4289   -2.4750    0.0000 C   0  0  0  0  0  0  0  0  0  0  0  0
    2.1434   -2.8875    0.0000 O   0  0  0  0  0  0  0  0  0  0  0  0
    1.4289   -1.6500    0.0000 C   0  0  0  0  0  0  0  0  0  0  0  0
    0.7145   -1.2375    0.0000 C   0  0  0  0  0  0  0  0  0  0  0  0
    0.7145   -0.4125    0.0000 C   0  0  0  0  0  0  0  0  0  0  0  0
    1.4289    0.0000    0.0000 C   0  0  0  0  0  0  0  0  0  0  0  0
    2.1434   -0.4125    0.0000 C   0  0  0  0  0  0  0  0  0  0  0  0
    2.8579    0.0000    0.0000 C   0  0  0  0  0  0  0  0  0  0  0  0
    3.5724   -0.4125    0.0000 C   0  0  0  0  0  0  0  0  0  0  0  0
    3.5724   -1.2375    0.0000 C   0  0  0  0  0  0  0  0  0  0  0  0
    2.8579   -1.6500    0.0000 N   0  0  0  0  0  0  0  0  0  0  0  0
    2.1434   -1.2375    0.0000 C   0  0  0  0  0  0  0  0  0  0  0  0
  1  2  1  0  0  0  0
  2  3  2  0  0  0  0
  2  4  1  0  0  0  0
  4  5  2  0  0  0  0
  5  6  1  0  0  0  0
  6  7  2  0  0  0  0
  7  8  1  0  0  0  0
  8  9  2  0  0  0  0
  9 10  1  0  0  0  0
 10 11  2  0  0  0  0
 11 12  1  0  0  0  0
 12 13  2  0  0  0  0
  4 13  1  0  0  0  0
  8 13  1  0  0  0  0
M  END
>  <Catalog ID>
Z85921051

>  <PlateID>
1198308-R-SPFL-09

>  <Well>
E09

>  <MW (desalted)>
173.168

>  <ClogP>
2.080

>  <HBD>
1

>  <TPSA>
50.190

>  <RotBonds>
1

$$$$

            

 10 10  0  0  0  0            999 V2000
    0.0000    3.3000    0.0000 O   0  0  0  0  0  0  0  0  0  0  0  0
    0.0000    2.4750    0.0000 C   0  0  0  0  0  0  0  0  0  0  0  0
   -0.7145    2.0625    0.0000 O   0  0  0  0  0  0  0  0  0  0  0  0
    0.7145    2.0625    0.0000 C   0  0  0  0  0  0  0  0  0  0  0  0
    0.7145    1.2375    0.0000 C   0  0  0  0  0  0  0  0  0  0  0  0
    1.4289    0.8250    0.0000 C   0  0  0  0  0  0  0  0  0  0  0  0
    1.4289   -0.0000    0.0000 C   0  0  0  0  0  0  0  0  0  0  0  0
    0.7145   -0.4125    0.0000 C   0  0  0  0  0  0  0  0  0  0  0  0
    0.0000    0.0000    0.0000 C   0  0  0  0  0  0  0  0  0  0  0  0
    0.0000    0.8250    0.0000 O   0  0  0  0  0  0  0  0  0  0  0  0
  1  2  1  0  0  0  0
  2  3  2  0  0  0  0
  2  4  1  0  0  0  0
  4  5  1  0  0  0  0
  5  6  1  0  0  0  0
  6  7  1  0  0  0  0
  7  8  1  0  0  0  0
  8  9  1  0  0  0  0
  9 10  1  0  0  0  0
  5 10  1  0  0  0  0
M  END
>  <Catalog ID>
Z432421618

>  <PlateID>
1198308-R-SPFL-09

>  <Well>
E10

>  <MW (desalted)>
144.168

>  <ClogP>
0.706

>  <HBD>
1

>  <TPSA>
46.530

>  <RotBonds>
2

$$$$

            

 14 15  0  0  0  0            999 V2000
    0.7145   -1.2375    0.0000 C   0  0  0  0  0  0  0  0  0  0  0  0
    1.4289   -1.6500    0.0000 N   0  0  0  0  0  0  0  0  0  0  0  0
    1.4289   -2.4750    0.0000 C   0  0  0  0  0  0  0  0  0  0  0  0
    2.1434   -2.8875    0.0000 C   0  0  0  0  0  0  0  0  0  0  0  0
    2.1434   -3.7125    0.0000 C   0  0  0  0  0  0  0  0  0  0  0  0
    1.4289   -4.1250    0.0000 C   0  0  0  0  0  0  0  0  0  0  0  0
    0.7145   -3.7125    0.0000 N   0  0  0  0  0  0  0  0  0  0  0  0
    0.7145   -2.8875    0.0000 C   0  0  0  0  0  0  0  0  0  0  0  0
    0.7145   -0.4125    0.0000 C   0  0  0  0  0  0  0  0  0  0  0  0
    0.0000    0.0000    0.0000 C   0  0  0  0  0  0  0  0  0  0  0  0
    0.0000    0.8250    0.0000 C   0  0  0  0  0  0  0  0  0  0  0  0
    0.7145    1.2375    0.0000 C   0  0  0  0  0  0  0  0  0  0  0  0
    1.4289    0.8250    0.0000 C   0  0  0  0  0  0  0  0  0  0  0  0
    1.4289    0.0000    0.0000 N   0  0  0  0  0  0  0  0  0  0  0  0
  1  2  1  0  0  0  0
  2  3  1  0  0  0  0
  3  4  2  0  0  0  0
  4  5  1  0  0  0  0
  5  6  2  0  0  0  0
  6  7  1  0  0  0  0
  7  8  2  0  0  0  0
  3  8  1  0  0  0  0
  1  9  1  0  0  0  0
  9 10  2  0  0  0  0
 10 11  1  0  0  0  0
 11 12  2  0  0  0  0
 12 13  1  0  0  0  0
 13 14  2  0  0  0  0
  9 14  1  0  0  0  0
M  END
>  <Catalog ID>
Z334882462

>  <PlateID>
1198308-R-SPFL-09

>  <Well>
E11

>  <MW (desalted)>
185.225

>  <ClogP>
1.067

>  <HBD>
1

>  <TPSA>
37.810

>  <RotBonds>
3

$$$$

            

 11 12  0  0  0  0            999 V2000
   -0.6674    1.3099    0.0000 O   0  0  0  0  0  0  0  0  0  0  0  0
    0.0000    0.8250    0.0000 C   0  0  0  0  0  0  0  0  0  0  0  0
    0.7846    1.0799    0.0000 C   0  0  0  0  0  0  0  0  0  0  0  0
    1.2695    0.4125    0.0000 C   0  0  0  0  0  0  0  0  0  0  0  0
    0.7846   -0.2549    0.0000 C   0  0  0  0  0  0  0  0  0  0  0  0
   -0.0000    0.0000    0.0000 N   0  0  0  0  0  0  0  0  0  0  0  0
    1.6820    1.1270    0.0000 C   0  0  0  0  0  0  0  0  0  0  0  0
    2.5070    1.1270    0.0000 C   0  0  0  0  0  0  0  0  0  0  0  0
    2.9195    0.4125    0.0000 C   0  0  0  0  0  0  0  0  0  0  0  0
    2.5070   -0.3020    0.0000 C   0  0  0  0  0  0  0  0  0  0  0  0
    1.6820   -0.3020    0.0000 C   0  0  0  0  0  0  0  0  0  0  0  0
  1  2  2  0  0  0  0
  2  3  1  0  0  0  0
  3  4  1  0  0  0  0
  4  5  1  0  0  0  0
  5  6  1  0  0  0  0
  2  6  1  0  0  0  0
  4  7  1  0  0  0  0
  7  8  1  0  0  0  0
  8  9  1  0  0  0  0
  9 10  1  0  0  0  0
 10 11  1  0  0  0  0
  4 11  1  0  0  0  0
M  END
>  <Catalog ID>
Z1255399250

>  <PlateID>
1198308-R-SPFL-09

>  <Well>
F02

>  <MW (desalted)>
153.222

>  <ClogP>
1.018

>  <HBD>
1

>  <TPSA>
29.100

>  <RotBonds>
0

$$$$

            

 12 12  0  0  0  0            999 V2000
    0.7145    2.0625    0.0000 C   0  0  0  0  0  0  0  0  0  0  0  0
    0.7145    1.2375    0.0000 C   0  0  0  0  0  0  0  0  0  0  0  0
    1.4289    0.8250    0.0000 C   0  0  0  0  0  0  0  0  0  0  0  0
    1.4289   -0.0000    0.0000 C   0  0  0  0  0  0  0  0  0  0  0  0
    0.7145   -0.4125    0.0000 C   0  0  0  0  0  0  0  0  0  0  0  0
    0.0000    0.0000    0.0000 N   0  0  0  0  0  0  0  0  0  0  0  0
    0.0000    0.8250    0.0000 C   0  0  0  0  0  0  0  0  0  0  0  0
   -0.7145    1.2375    0.0000 C   0  0  0  0  0  0  0  0  0  0  0  0
   -1.4289    0.8250    0.0000 C   0  0  0  0  0  0  0  0  0  0  0  0
   -2.1434    1.2375    0.0000 C   0  0  0  0  0  0  0  0  0  0  0  0
   -2.8579    0.8250    0.0000 O   0  0  0  0  0  0  0  0  0  0  0  0
   -2.1434    2.0625    0.0000 O   0  0  0  0  0  0  0  0  0  0  0  0
  1  2  1  0  0  0  0
  2  3  2  0  0  0  0
  3  4  1  0  0  0  0
  4  5  2  0  0  0  0
  5  6  1  0  0  0  0
  6  7  2  0  0  0  0
  2  7  1  0  0  0  0
  7  8  1  0  0  0  0
  8  9  1  0  0  0  0
  9 10  1  0  0  0  0
 10 11  2  0  0  0  0
 10 12  1  0  0  0  0
M  END
>  <Catalog ID>
Z1198279885

>  <PlateID>
1198308-R-SPFL-09

>  <Well>
F03

>  <MW (desalted)>
165.189

>  <ClogP>
0.855

>  <HBD>
1

>  <TPSA>
50.190

>  <RotBonds>
3

$$$$

            

 15 16  0  0  0  0            999 V2000
   -1.5356    5.5902    0.0000 O   0  0  0  0  0  0  0  0  0  0  0  0
   -0.8212    6.0027    0.0000 C   0  0  0  0  0  0  0  0  0  0  0  0
   -0.8212    6.8277    0.0000 O   0  0  0  0  0  0  0  0  0  0  0  0
   -0.1067    5.5902    0.0000 C   0  0  0  0  0  0  0  0  0  0  0  0
    0.6078    6.0027    0.0000 C   0  0  0  0  0  0  0  0  0  0  0  0
    1.3222    5.5902    0.0000 C   0  0  0  0  0  0  0  0  0  0  0  0
    1.3222    4.7652    0.0000 C   0  0  0  0  0  0  0  0  0  0  0  0
    2.0367    4.3527    0.0000 C   0  0  0  0  0  0  0  0  0  0  0  0
    2.0367    3.5277    0.0000 N   0  0  0  0  0  0  0  0  0  0  0  0
    2.7041    3.0428    0.0000 C   0  0  0  0  0  0  0  0  0  0  0  0
    2.4492    2.2581    0.0000 C   0  0  0  0  0  0  0  0  0  0  0  0
    1.6242    2.2581    0.0000 C   0  0  0  0  0  0  0  0  0  0  0  0
    1.3693    3.0428    0.0000 N   0  0  0  0  0  0  0  0  0  0  0  0
    0.6078    4.3527    0.0000 C   0  0  0  0  0  0  0  0  0  0  0  0
   -0.1067    4.7652    0.0000 C   0  0  0  0  0  0  0  0  0  0  0  0
  1  2  1  0  0  0  0
  2  3  2  0  0  0  0
  2  4  1  0  0  0  0
  4  5  2  0  0  0  0
  5  6  1  0  0  0  0
  6  7  2  0  0  0  0
  7  8  1  0  0  0  0
  8  9  1  0  0  0  0
  9 10  1  0  0  0  0
 10 11  2  0  0  0  0
 11 12  1  0  0  0  0
 12 13  2  0  0  0  0
  9 13  1  0  0  0  0
  7 14  1  0  0  0  0
 14 15  2  0  0  0  0
  4 15  1  0  0  0  0
M  END
>  <Catalog ID>
Z221503668

>  <PlateID>
1198308-R-SPFL-09

>  <Well>
F04

>  <MW (desalted)>
202.209

>  <ClogP>
1.958

>  <HBD>
1

>  <TPSA>
55.120

>  <RotBonds>
3

$$$$

            

 16 17  0  0  0  0            999 V2000
    2.1434   -0.4125    0.0000 O   0  0  0  0  0  0  0  0  0  0  0  0
    2.1434   -1.2375    0.0000 C   0  0  0  0  0  0  0  0  0  0  0  0
    2.8579   -1.6500    0.0000 C   0  0  0  0  0  0  0  0  0  0  0  0
    2.8579   -2.4750    0.0000 C   0  0  0  0  0  0  0  0  0  0  0  0
    2.1434   -2.8875    0.0000 C   0  0  0  0  0  0  0  0  0  0  0  0
    1.4289   -2.4750    0.0000 N   0  0  0  0  0  0  0  0  0  0  0  0
    0.7145   -2.8875    0.0000 C   0  0  0  0  0  0  0  0  0  0  0  0
    0.0000   -2.4750    0.0000 C   0  0  0  0  0  0  0  0  0  0  0  0
   -0.7145   -2.8875    0.0000 C   0  0  0  0  0  0  0  0  0  0  0  0
   -1.4289   -2.4750    0.0000 C   0  0  0  0  0  0  0  0  0  0  0  0
   -1.4289   -1.6500    0.0000 C   0  0  0  0  0  0  0  0  0  0  0  0
   -0.7145   -1.2375    0.0000 C   0  0  0  0  0  0  0  0  0  0  0  0
   -0.7145   -0.4125    0.0000 F   0  0  0  0  0  0  0  0  0  0  0  0
    0.0000   -1.6500    0.0000 C   0  0  0  0  0  0  0  0  0  0  0  0
    0.7145   -1.2375    0.0000 F   0  0  0  0  0  0  0  0  0  0  0  0
    1.4289   -1.6500    0.0000 C   0  0  0  0  0  0  0  0  0  0  0  0
  1  2  1  0  0  0  0
  2  3  1  0  0  0  0
  3  4  1  0  0  0  0
  4  5  1  0  0  0  0
  5  6  1  0  0  0  0
  6  7  1  0  0  0  0
  7  8  1  0  0  0  0
  8  9  2  0  0  0  0
  9 10  1  0  0  0  0
 10 11  2  0  0  0  0
 11 12  1  0  0  0  0
 12 13  1  0  0  0  0
 12 14  2  0  0  0  0
  8 14  1  0  0  0  0
 14 15  1  0  0  0  0
  6 16  1  0  0  0  0
  2 16  1  0  0  0  0
M  END
>  <Catalog ID>
Z141618970

>  <PlateID>
1198308-R-SPFL-09

>  <Well>
F05

>  <MW (desalted)>
227.250

>  <ClogP>
2.131

>  <HBD>
1

>  <TPSA>
23.470

>  <RotBonds>
2

$$$$

            

 13 15  0  0  0  0            999 V2000
    0.8838   -2.1500    0.0000 C   0  0  0  0  0  0  0  0  0  0  0  0
    1.1387   -1.3654    0.0000 N   0  0  0  0  0  0  0  0  0  0  0  0
    0.6538   -0.6979    0.0000 C   0  0  0  0  0  0  0  0  0  0  0  0
    1.1387   -0.0305    0.0000 N   0  0  0  0  0  0  0  0  0  0  0  0
    1.9233   -0.2854    0.0000 C   0  0  0  0  0  0  0  0  0  0  0  0
    2.6378    0.1271    0.0000 C   0  0  0  0  0  0  0  0  0  0  0  0
    3.3523   -0.2854    0.0000 N   0  0  0  0  0  0  0  0  0  0  0  0
    3.3523   -1.1104    0.0000 C   0  0  0  0  0  0  0  0  0  0  0  0
    2.6378   -1.5229    0.0000 C   0  0  0  0  0  0  0  0  0  0  0  0
    1.9233   -1.1104    0.0000 C   0  0  0  0  0  0  0  0  0  0  0  0
   -0.1712   -0.6979    0.0000 C   0  0  0  0  0  0  0  0  0  0  0  0
   -0.8857   -1.1104    0.0000 C   0  0  0  0  0  0  0  0  0  0  0  0
   -0.8857   -0.2854    0.0000 C   0  0  0  0  0  0  0  0  0  0  0  0
  1  2  1  0  0  0  0
  2  3  1  0  0  0  0
  3  4  2  0  0  0  0
  4  5  1  0  0  0  0
  5  6  2  0  0  0  0
  6  7  1  0  0  0  0
  7  8  2  0  0  0  0
  8  9  1  0  0  0  0
  9 10  2  0  0  0  0
  2 10  1  0  0  0  0
  5 10  1  0  0  0  0
  3 11  1  0  0  0  0
 11 12  1  0  0  0  0
 12 13  1  0  0  0  0
 11 13  1  0  0  0  0
M  END
>  <Catalog ID>
Z1259302499

>  <PlateID>
1198308-R-SPFL-09

>  <Well>
F06

>  <MW (desalted)>
173.214

>  <ClogP>
1.198

>  <HBD>
0

>  <TPSA>
30.710

>  <RotBonds>
1

$$$$

            

 12 13  0  0  0  0            999 V2000
   -0.6078   -0.4741    0.0000 C   0  0  0  0  0  0  0  0  0  0  0  0
   -1.3222   -0.0616    0.0000 C   0  0  0  0  0  0  0  0  0  0  0  0
   -2.0367   -0.4741    0.0000 C   0  0  0  0  0  0  0  0  0  0  0  0
   -2.7512   -0.0616    0.0000 C   0  0  0  0  0  0  0  0  0  0  0  0
   -2.7512    0.7634    0.0000 C   0  0  0  0  0  0  0  0  0  0  0  0
   -2.0367    1.1759    0.0000 C   0  0  0  0  0  0  0  0  0  0  0  0
   -1.3222    0.7634    0.0000 N   0  0  0  0  0  0  0  0  0  0  0  0
   -0.6078   -1.2991    0.0000 N   0  0  0  0  0  0  0  0  0  0  0  0
    0.0597   -1.7840    0.0000 C   0  0  0  0  0  0  0  0  0  0  0  0
   -0.1953   -2.5687    0.0000 N   0  0  0  0  0  0  0  0  0  0  0  0
   -1.0203   -2.5687    0.0000 C   0  0  0  0  0  0  0  0  0  0  0  0
   -1.2752   -1.7840    0.0000 N   0  0  0  0  0  0  0  0  0  0  0  0
  1  2  1  0  0  0  0
  2  3  1  0  0  0  0
  3  4  1  0  0  0  0
  4  5  1  0  0  0  0
  5  6  1  0  0  0  0
  6  7  1  0  0  0  0
  2  7  1  0  0  0  0
  1  8  1  0  0  0  0
  8  9  1  0  0  0  0
  9 10  2  0  0  0  0
 10 11  1  0  0  0  0
 11 12  2  0  0  0  0
  8 12  1  0  0  0  0
M  END
>  <Catalog ID>
Z839498414

>  <PlateID>
1198308-R-SPFL-09

>  <Well>
F07

>  <MW (desalted)>
166.224

>  <ClogP>
0.007

>  <HBD>
1

>  <TPSA>
42.740

>  <RotBonds>
2

$$$$

            

 12 13  0  0  0  0            999 V2000
    2.0367   -0.4741    0.0000 N   0  0  0  0  0  0  0  0  0  0  0  0
    2.0367   -1.2991    0.0000 C   0  0  0  0  0  0  0  0  0  0  0  0
    2.7041   -1.7840    0.0000 N   0  0  0  0  0  0  0  0  0  0  0  0
    2.4492   -2.5687    0.0000 N   0  0  0  0  0  0  0  0  0  0  0  0
    1.6242   -2.5687    0.0000 C   0  0  0  0  0  0  0  0  0  0  0  0
    1.3693   -1.7840    0.0000 S   0  0  0  0  0  0  0  0  0  0  0  0
    2.7512   -0.0616    0.0000 C   0  0  0  0  0  0  0  0  0  0  0  0
    2.7512    0.7634    0.0000 C   0  0  0  0  0  0  0  0  0  0  0  0
    3.4656    1.1759    0.0000 C   0  0  0  0  0  0  0  0  0  0  0  0
    4.1801    0.7634    0.0000 C   0  0  0  0  0  0  0  0  0  0  0  0
    4.1801   -0.0616    0.0000 C   0  0  0  0  0  0  0  0  0  0  0  0
    3.4656   -0.4741    0.0000 C   0  0  0  0  0  0  0  0  0  0  0  0
  1  2  1  0  0  0  0
  2  3  2  0  0  0  0
  3  4  1  0  0  0  0
  4  5  2  0  0  0  0
  5  6  1  0  0  0  0
  2  6  1  0  0  0  0
  1  7  1  0  0  0  0
  7  8  2  0  0  0  0
  8  9  1  0  0  0  0
  9 10  2  0  0  0  0
 10 11  1  0  0  0  0
 11 12  2  0  0  0  0
  7 12  1  0  0  0  0
M  END
>  <Catalog ID>
Z56347187

>  <PlateID>
1198308-R-SPFL-09

>  <Well>
F08

>  <MW (desalted)>
177.226

>  <ClogP>
2.359

>  <HBD>
1

>  <TPSA>
37.810

>  <RotBonds>
2

$$$$

            

 16 17  0  0  0  0            999 V2000
    2.8579    0.0000    0.0000 O   0  0  0  0  0  0  0  0  0  0  0  0
    3.5724   -0.4125    0.0000 C   0  0  0  0  0  0  0  0  0  0  0  0
    3.5724   -1.2375    0.0000 N   0  0  0  0  0  0  0  0  0  0  0  0
    2.8579   -1.6500    0.0000 C   0  0  0  0  0  0  0  0  0  0  0  0
    2.8579   -2.4750    0.0000 C   0  0  0  0  0  0  0  0  0  0  0  0
    3.5724   -2.8875    0.0000 C   0  0  0  0  0  0  0  0  0  0  0  0
    3.5724   -3.7125    0.0000 C   0  0  0  0  0  0  0  0  0  0  0  0
    2.8579   -4.1250    0.0000 C   0  0  0  0  0  0  0  0  0  0  0  0
    2.1434   -3.7125    0.0000 C   0  0  0  0  0  0  0  0  0  0  0  0
    2.1434   -2.8875    0.0000 N   0  0  0  0  0  0  0  0  0  0  0  0
    4.2868    0.0000    0.0000 C   0  0  0  0  0  0  0  0  0  0  0  0
    4.2868    0.8250    0.0000 C   0  0  0  0  0  0  0  0  0  0  0  0
    5.0013    1.2375    0.0000 C   0  0  0  0  0  0  0  0  0  0  0  0
    5.7158    0.8250    0.0000 C   0  0  0  0  0  0  0  0  0  0  0  0
    5.7158   -0.0000    0.0000 C   0  0  0  0  0  0  0  0  0  0  0  0
    5.0013   -0.4125    0.0000 C   0  0  0  0  0  0  0  0  0  0  0  0
  1  2  2  0  0  0  0
  2  3  1  0  0  0  0
  3  4  1  0  0  0  0
  4  5  1  0  0  0  0
  5  6  2  0  0  0  0
  6  7  1  0  0  0  0
  7  8  2  0  0  0  0
  8  9  1  0  0  0  0
  9 10  2  0  0  0  0
  5 10  1  0  0  0  0
  2 11  1  0  0  0  0
 11 12  2  0  0  0  0
 12 13  1  0  0  0  0
 13 14  2  0  0  0  0
 14 15  1  0  0  0  0
 15 16  2  0  0  0  0
 11 16  1  0  0  0  0
M  END
>  <Catalog ID>
Z30166421

>  <PlateID>
1198308-R-SPFL-09

>  <Well>
F09

>  <MW (desalted)>
212.247

>  <ClogP>
1.332

>  <HBD>
1

>  <TPSA>
41.990

>  <RotBonds>
3

$$$$

            

 14 15  0  0  0  0            999 V2000
    0.0000    0.0000    0.0000 Cl  0  0  0  0  0  0  0  0  0  0  0  0
    5.6837    0.6976    0.0000 C   0  0  0  0  0  0  0  0  0  0  0  0
    4.8767    0.8691    0.0000 C   0  0  0  0  0  0  0  0  0  0  0  0
    4.3247    0.2560    0.0000 N   0  0  0  0  0  0  0  0  0  0  0  0
    4.5796   -0.5286    0.0000 C   0  0  0  0  0  0  0  0  0  0  0  0
    5.3866   -0.7002    0.0000 C   0  0  0  0  0  0  0  0  0  0  0  0
    5.9386   -0.0871    0.0000 N   0  0  0  0  0  0  0  0  0  0  0  0
    3.9122   -1.0136    0.0000 C   0  0  0  0  0  0  0  0  0  0  0  0
    3.2447   -0.5286    0.0000 C   0  0  0  0  0  0  0  0  0  0  0  0
    2.4377   -0.7002    0.0000 C   0  0  0  0  0  0  0  0  0  0  0  0
    1.8857   -0.0871    0.0000 C   0  0  0  0  0  0  0  0  0  0  0  0
    2.1407    0.6976    0.0000 C   0  0  0  0  0  0  0  0  0  0  0  0
    2.9476    0.8691    0.0000 C   0  0  0  0  0  0  0  0  0  0  0  0
    3.4997    0.2560    0.0000 C   0  0  0  0  0  0  0  0  0  0  0  0
  2  3  1  0  0  0  0
  3  4  1  0  0  0  0
  4  5  1  0  0  0  0
  5  6  1  0  0  0  0
  6  7  1  0  0  0  0
  2  7  1  0  0  0  0
  5  8  2  0  0  0  0
  8  9  1  0  0  0  0
  9 10  2  0  0  0  0
 10 11  1  0  0  0  0
 11 12  2  0  0  0  0
 12 13  1  0  0  0  0
 13 14  2  0  0  0  0
  4 14  1  0  0  0  0
  9 14  1  0  0  0  0
M  END
>  <Catalog ID>
Z2188172213

>  <PlateID>
1198308-R-SPFL-09

>  <Well>
F10

>  <MW (desalted)>
172.226

>  <ClogP>
1.831

>  <HBD>
1

>  <TPSA>
16.960

>  <RotBonds>
0

$$$$

            

 14 15  0  0  0  0            999 V2000
    2.5330    0.1698    0.0000 C   0  0  0  0  0  0  0  0  0  0  0  0
    2.5330   -0.6552    0.0000 C   0  0  0  0  0  0  0  0  0  0  0  0
    3.2004   -1.1401    0.0000 N   0  0  0  0  0  0  0  0  0  0  0  0
    2.9455   -1.9248    0.0000 C   0  0  0  0  0  0  0  0  0  0  0  0
    3.4304   -2.5922    0.0000 C   0  0  0  0  0  0  0  0  0  0  0  0
    2.1205   -1.9248    0.0000 C   0  0  0  0  0  0  0  0  0  0  0  0
    1.8655   -1.1401    0.0000 S   0  0  0  0  0  0  0  0  0  0  0  0
    1.6356   -2.5922    0.0000 C   0  0  0  0  0  0  0  0  0  0  0  0
    1.9711   -3.3459    0.0000 O   0  0  0  0  0  0  0  0  0  0  0  0
    0.8151   -2.5060    0.0000 N   0  0  0  0  0  0  0  0  0  0  0  0
    0.2630   -3.1191    0.0000 C   0  0  0  0  0  0  0  0  0  0  0  0
   -0.4906   -2.7835    0.0000 C   0  0  0  0  0  0  0  0  0  0  0  0
   -0.4044   -1.9630    0.0000 C   0  0  0  0  0  0  0  0  0  0  0  0
    0.4026   -1.7915    0.0000 C   0  0  0  0  0  0  0  0  0  0  0  0
  1  2  1  0  0  0  0
  2  3  2  0  0  0  0
  3  4  1  0  0  0  0
  4  5  1  0  0  0  0
  4  6  2  0  0  0  0
  6  7  1  0  0  0  0
  2  7  1  0  0  0  0
  6  8  1  0  0  0  0
  8  9  2  0  0  0  0
  8 10  1  0  0  0  0
 10 11  1  0  0  0  0
 11 12  1  0  0  0  0
 12 13  1  0  0  0  0
 13 14  1  0  0  0  0
 10 14  1  0  0  0  0
M  END
>  <Catalog ID>
Z54676282

>  <PlateID>
1198308-R-SPFL-09

>  <Well>
F11

>  <MW (desalted)>
210.296

>  <ClogP>
0.967

>  <HBD>
0

>  <TPSA>
33.200

>  <RotBonds>
1

$$$$

            

 15 16  0  0  0  0            999 V2000
    0.0000   -0.0000    0.0000 O   0  0  0  0  0  0  0  0  0  0  0  0
    0.7145   -0.4125    0.0000 C   0  0  0  0  0  0  0  0  0  0  0  0
    1.4289    0.0000    0.0000 O   0  0  0  0  0  0  0  0  0  0  0  0
    0.7145   -1.2375    0.0000 C   0  0  0  0  0  0  0  0  0  0  0  0
    1.4289   -1.6500    0.0000 C   0  0  0  0  0  0  0  0  0  0  0  0
    1.4289   -2.4750    0.0000 C   0  0  0  0  0  0  0  0  0  0  0  0
    0.7145   -2.8875    0.0000 C   0  0  0  0  0  0  0  0  0  0  0  0
    0.0000   -2.4750    0.0000 C   0  0  0  0  0  0  0  0  0  0  0  0
    0.0000   -1.6500    0.0000 N   0  0  0  0  0  0  0  0  0  0  0  0
    2.1434   -2.8875    0.0000 C   0  0  0  0  0  0  0  0  0  0  0  0
    2.8579   -2.4750    0.0000 C   0  0  0  0  0  0  0  0  0  0  0  0
    3.5724   -2.8875    0.0000 C   0  0  0  0  0  0  0  0  0  0  0  0
    3.5724   -3.7125    0.0000 C   0  0  0  0  0  0  0  0  0  0  0  0
    2.8579   -4.1250    0.0000 C   0  0  0  0  0  0  0  0  0  0  0  0
    2.1434   -3.7125    0.0000 C   0  0  0  0  0  0  0  0  0  0  0  0
  1  2  1  0  0  0  0
  2  3  2  0  0  0  0
  2  4  1  0  0  0  0
  4  5  2  0  0  0  0
  5  6  1  0  0  0  0
  6  7  2  0  0  0  0
  7  8  1  0  0  0  0
  8  9  2  0  0  0  0
  4  9  1  0  0  0  0
  6 10  1  0  0  0  0
 10 11  2  0  0  0  0
 11 12  1  0  0  0  0
 12 13  2  0  0  0  0
 13 14  1  0  0  0  0
 14 15  2  0  0  0  0
 10 15  1  0  0  0  0
M  END
>  <Catalog ID>
Z1255391304

>  <PlateID>
1198308-R-SPFL-09

>  <Well>
G02

>  <MW (desalted)>
199.205

>  <ClogP>
2.887

>  <HBD>
1

>  <TPSA>
50.190

>  <RotBonds>
2

$$$$

            

 12 13  0  0  0  0            999 V2000
    0.0768   -2.3215    0.0000 O   0  0  0  0  0  0  0  0  0  0  0  0
    0.8838   -2.1500    0.0000 C   0  0  0  0  0  0  0  0  0  0  0  0
    1.4358   -2.7631    0.0000 O   0  0  0  0  0  0  0  0  0  0  0  0
    1.1387   -1.3654    0.0000 C   0  0  0  0  0  0  0  0  0  0  0  0
    0.6538   -0.6979    0.0000 C   0  0  0  0  0  0  0  0  0  0  0  0
    1.1387   -0.0305    0.0000 S   0  0  0  0  0  0  0  0  0  0  0  0
    1.9233   -0.2854    0.0000 C   0  0  0  0  0  0  0  0  0  0  0  0
    2.6378    0.1271    0.0000 C   0  0  0  0  0  0  0  0  0  0  0  0
    3.3523   -0.2854    0.0000 C   0  0  0  0  0  0  0  0  0  0  0  0
    3.3523   -1.1104    0.0000 C   0  0  0  0  0  0  0  0  0  0  0  0
    2.6378   -1.5229    0.0000 N   0  0  0  0  0  0  0  0  0  0  0  0
    1.9233   -1.1104    0.0000 C   0  0  0  0  0  0  0  0  0  0  0  0
  1  2  1  0  0  0  0
  2  3  2  0  0  0  0
  2  4  1  0  0  0  0
  4  5  2  0  0  0  0
  5  6  1  0  0  0  0
  6  7  1  0  0  0  0
  7  8  2  0  0  0  0
  8  9  1  0  0  0  0
  9 10  2  0  0  0  0
 10 11  1  0  0  0  0
 11 12  2  0  0  0  0
  4 12  1  0  0  0  0
  7 12  1  0  0  0  0
M  END
>  <Catalog ID>
Z1486016114

>  <PlateID>
1198308-R-SPFL-09

>  <Well>
G03

>  <MW (desalted)>
179.196

>  <ClogP>
2.083

>  <HBD>
1

>  <TPSA>
50.190

>  <RotBonds>
1

$$$$

            

 16 17  0  0  0  0            999 V2000
    1.3222    8.0652    0.0000 C   0  0  0  0  0  0  0  0  0  0  0  0
    1.3222    7.2402    0.0000 O   0  0  0  0  0  0  0  0  0  0  0  0
    2.0367    6.8277    0.0000 C   0  0  0  0  0  0  0  0  0  0  0  0
    2.7512    7.2402    0.0000 C   0  0  0  0  0  0  0  0  0  0  0  0
    3.4656    6.8277    0.0000 C   0  0  0  0  0  0  0  0  0  0  0  0
    3.4656    6.0027    0.0000 C   0  0  0  0  0  0  0  0  0  0  0  0
    2.7512    5.5902    0.0000 C   0  0  0  0  0  0  0  0  0  0  0  0
    2.7512    4.7652    0.0000 N   0  0  0  0  0  0  0  0  0  0  0  0
    3.4656    4.3527    0.0000 C   0  0  0  0  0  0  0  0  0  0  0  0
    4.1801    4.7652    0.0000 O   0  0  0  0  0  0  0  0  0  0  0  0
    3.4656    3.5277    0.0000 C   0  0  0  0  0  0  0  0  0  0  0  0
    4.1331    3.0428    0.0000 C   0  0  0  0  0  0  0  0  0  0  0  0
    3.8781    2.2581    0.0000 C   0  0  0  0  0  0  0  0  0  0  0  0
    3.0531    2.2581    0.0000 C   0  0  0  0  0  0  0  0  0  0  0  0
    2.7982    3.0428    0.0000 O   0  0  0  0  0  0  0  0  0  0  0  0
    2.0367    6.0027    0.0000 C   0  0  0  0  0  0  0  0  0  0  0  0
  1  2  1  0  0  0  0
  2  3  1  0  0  0  0
  3  4  2  0  0  0  0
  4  5  1  0  0  0  0
  5  6  2  0  0  0  0
  6  7  1  0  0  0  0
  7  8  1  0  0  0  0
  8  9  1  0  0  0  0
  9 10  2  0  0  0  0
  9 11  1  0  0  0  0
 11 12  2  0  0  0  0
 12 13  1  0  0  0  0
 13 14  2  0  0  0  0
 14 15  1  0  0  0  0
 11 15  1  0  0  0  0
  7 16  2  0  0  0  0
  3 16  1  0  0  0  0
M  END
>  <Catalog ID>
Z27795299

>  <PlateID>
1198308-R-SPFL-09

>  <Well>
G04

>  <MW (desalted)>
217.221

>  <ClogP>
1.901

>  <HBD>
1

>  <TPSA>
51.470

>  <RotBonds>
3

$$$$

            

 15 16  0  0  0  0            999 V2000
   -0.9851   -3.2777    0.0000 C   0  0  0  0  0  0  0  0  0  0  0  0
   -0.1781   -3.1062    0.0000 N   0  0  0  0  0  0  0  0  0  0  0  0
    0.3739   -3.7192    0.0000 C   0  0  0  0  0  0  0  0  0  0  0  0
    0.0768   -2.3215    0.0000 C   0  0  0  0  0  0  0  0  0  0  0  0
   -0.4752   -1.7084    0.0000 O   0  0  0  0  0  0  0  0  0  0  0  0
    0.8838   -2.1500    0.0000 C   0  0  0  0  0  0  0  0  0  0  0  0
    1.1387   -1.3654    0.0000 N   0  0  0  0  0  0  0  0  0  0  0  0
    0.6538   -0.6979    0.0000 N   0  0  0  0  0  0  0  0  0  0  0  0
    1.1387   -0.0305    0.0000 C   0  0  0  0  0  0  0  0  0  0  0  0
    1.9233   -0.2854    0.0000 C   0  0  0  0  0  0  0  0  0  0  0  0
    2.6378    0.1271    0.0000 C   0  0  0  0  0  0  0  0  0  0  0  0
    3.3523   -0.2854    0.0000 C   0  0  0  0  0  0  0  0  0  0  0  0
    3.3523   -1.1104    0.0000 C   0  0  0  0  0  0  0  0  0  0  0  0
    2.6378   -1.5229    0.0000 C   0  0  0  0  0  0  0  0  0  0  0  0
    1.9233   -1.1104    0.0000 C   0  0  0  0  0  0  0  0  0  0  0  0
  1  2  1  0  0  0  0
  2  3  1  0  0  0  0
  2  4  1  0  0  0  0
  4  5  2  0  0  0  0
  4  6  1  0  0  0  0
  6  7  1  0  0  0  0
  7  8  1  0  0  0  0
  8  9  2  0  0  0  0
  9 10  1  0  0  0  0
 10 11  2  0  0  0  0
 11 12  1  0  0  0  0
 12 13  2  0  0  0  0
 13 14  1  0  0  0  0
 14 15  2  0  0  0  0
  7 15  1  0  0  0  0
 10 15  1  0  0  0  0
M  END
>  <Catalog ID>
Z1148165337

>  <PlateID>
1198308-R-SPFL-09

>  <Well>
G05

>  <MW (desalted)>
203.240

>  <ClogP>
1.178

>  <HBD>
0

>  <TPSA>
38.130

>  <RotBonds>
2

$$$$

            

 14 15  0  0  0  0            999 V2000
    0.0000    0.0000    0.0000 N   0  0  0  0  0  0  0  0  0  0  0  0
    0.7145   -0.4125    0.0000 C   0  0  0  0  0  0  0  0  0  0  0  0
    0.7145   -1.2375    0.0000 C   0  0  0  0  0  0  0  0  0  0  0  0
    1.4289   -1.6500    0.0000 C   0  0  0  0  0  0  0  0  0  0  0  0
    1.4289   -2.4750    0.0000 C   0  0  0  0  0  0  0  0  0  0  0  0
    0.7145   -2.8875    0.0000 N   0  0  0  0  0  0  0  0  0  0  0  0
    0.0000   -2.4750    0.0000 C   0  0  0  0  0  0  0  0  0  0  0  0
    0.0000   -1.6500    0.0000 C   0  0  0  0  0  0  0  0  0  0  0  0
    0.7145   -3.7125    0.0000 C   0  0  0  0  0  0  0  0  0  0  0  0
    1.4289   -4.1250    0.0000 C   0  0  0  0  0  0  0  0  0  0  0  0
    1.4289   -4.9500    0.0000 C   0  0  0  0  0  0  0  0  0  0  0  0
    0.7145   -5.3625    0.0000 C   0  0  0  0  0  0  0  0  0  0  0  0
    0.0000   -4.9500    0.0000 C   0  0  0  0  0  0  0  0  0  0  0  0
    0.0000   -4.1250    0.0000 C   0  0  0  0  0  0  0  0  0  0  0  0
  1  2  1  0  0  0  0
  2  3  1  0  0  0  0
  3  4  1  0  0  0  0
  4  5  1  0  0  0  0
  5  6  1  0  0  0  0
  6  7  1  0  0  0  0
  7  8  1  0  0  0  0
  3  8  1  0  0  0  0
  6  9  1  0  0  0  0
  9 10  2  0  0  0  0
 10 11  1  0  0  0  0
 11 12  2  0  0  0  0
 12 13  1  0  0  0  0
 13 14  2  0  0  0  0
  9 14  1  0  0  0  0
M  END
>  <Catalog ID>
Z1171979037

>  <PlateID>
1198308-R-SPFL-09

>  <Well>
G06

>  <MW (desalted)>
190.285

>  <ClogP>
1.612

>  <HBD>
1

>  <TPSA>
29.260

>  <RotBonds>
2

$$$$

            

 11 11  0  0  0  0            999 V2000
    1.4289    2.4750    0.0000 C   0  0  0  0  0  0  0  0  0  0  0  0
    0.7145    2.0625    0.0000 C   0  0  0  0  0  0  0  0  0  0  0  0
    0.0000    2.4750    0.0000 C   0  0  0  0  0  0  0  0  0  0  0  0
    0.7145    1.2375    0.0000 N   0  0  0  0  0  0  0  0  0  0  0  0
    1.4289    0.8250    0.0000 C   0  0  0  0  0  0  0  0  0  0  0  0
    1.4289   -0.0000    0.0000 C   0  0  0  0  0  0  0  0  0  0  0  0
    0.7145   -0.4125    0.0000 C   0  0  0  0  0  0  0  0  0  0  0  0
    0.0000    0.0000    0.0000 C   0  0  0  0  0  0  0  0  0  0  0  0
   -0.7145   -0.4125    0.0000 C   0  0  0  0  0  0  0  0  0  0  0  0
   -0.7145   -1.2375    0.0000 O   0  0  0  0  0  0  0  0  0  0  0  0
    0.0000    0.8250    0.0000 C   0  0  0  0  0  0  0  0  0  0  0  0
  1  2  1  0  0  0  0
  2  3  1  0  0  0  0
  2  4  1  0  0  0  0
  4  5  1  0  0  0  0
  5  6  1  0  0  0  0
  6  7  1  0  0  0  0
  7  8  1  0  0  0  0
  8  9  1  0  0  0  0
  9 10  1  0  0  0  0
  8 11  1  0  0  0  0
  4 11  1  0  0  0  0
M  END
>  <Catalog ID>
Z103740620

>  <PlateID>
1198308-R-SPFL-09

>  <Well>
G07

>  <MW (desalted)>
157.253

>  <ClogP>
0.751

>  <HBD>
1

>  <TPSA>
23.470

>  <RotBonds>
2

$$$$

            

 16 17  0  0  0  0            999 V2000
    1.4289   -1.6500    0.0000 C   0  0  0  0  0  0  0  0  0  0  0  0
    1.4289   -2.4750    0.0000 C   0  0  0  0  0  0  0  0  0  0  0  0
    2.1434   -2.8875    0.0000 C   0  0  0  0  0  0  0  0  0  0  0  0
    2.1434   -3.7125    0.0000 C   0  0  0  0  0  0  0  0  0  0  0  0
    1.4289   -4.1250    0.0000 C   0  0  0  0  0  0  0  0  0  0  0  0
    0.7145   -3.7125    0.0000 C   0  0  0  0  0  0  0  0  0  0  0  0
    0.0000   -4.1250    0.0000 N   0  0  0  0  0  0  0  0  0  0  0  0
    0.0000   -4.9500    0.0000 C   0  0  0  0  0  0  0  0  0  0  0  0
    0.7145   -5.3625    0.0000 O   0  0  0  0  0  0  0  0  0  0  0  0
   -0.7145   -5.3625    0.0000 C   0  0  0  0  0  0  0  0  0  0  0  0
   -0.7145   -6.1875    0.0000 C   0  0  0  0  0  0  0  0  0  0  0  0
   -1.4289   -6.6000    0.0000 N   0  0  0  0  0  0  0  0  0  0  0  0
   -2.1434   -6.1875    0.0000 C   0  0  0  0  0  0  0  0  0  0  0  0
   -2.1434   -5.3625    0.0000 C   0  0  0  0  0  0  0  0  0  0  0  0
   -1.4289   -4.9500    0.0000 N   0  0  0  0  0  0  0  0  0  0  0  0
    0.7145   -2.8875    0.0000 C   0  0  0  0  0  0  0  0  0  0  0  0
  1  2  1  0  0  0  0
  2  3  2  0  0  0  0
  3  4  1  0  0  0  0
  4  5  2  0  0  0  0
  5  6  1  0  0  0  0
  6  7  1  0  0  0  0
  7  8  1  0  0  0  0
  8  9  2  0  0  0  0
  8 10  1  0  0  0  0
 10 11  2  0  0  0  0
 11 12  1  0  0  0  0
 12 13  2  0  0  0  0
 13 14  1  0  0  0  0
 14 15  2  0  0  0  0
 10 15  1  0  0  0  0
  6 16  2  0  0  0  0
  2 16  1  0  0  0  0
M  END
>  <Catalog ID>
Z27791161

>  <PlateID>
1198308-R-SPFL-09

>  <Well>
G08

>  <MW (desalted)>
213.235

>  <ClogP>
1.963

>  <HBD>
1

>  <TPSA>
54.880

>  <RotBonds>
2

$$$$

            

 10 11  0  0  0  0            999 V2000
    1.6689   -2.2748    0.0000 C   0  0  0  0  0  0  0  0  0  0  0  0
    0.8439   -2.2748    0.0000 C   0  0  0  0  0  0  0  0  0  0  0  0
    0.5890   -1.4901    0.0000 N   0  0  0  0  0  0  0  0  0  0  0  0
    1.2564   -1.0052    0.0000 C   0  0  0  0  0  0  0  0  0  0  0  0
    1.9239   -1.4901    0.0000 N   0  0  0  0  0  0  0  0  0  0  0  0
    1.2564   -0.1802    0.0000 C   0  0  0  0  0  0  0  0  0  0  0  0
    0.5890    0.3047    0.0000 C   0  0  0  0  0  0  0  0  0  0  0  0
    0.8439    1.0893    0.0000 C   0  0  0  0  0  0  0  0  0  0  0  0
    1.6689    1.0893    0.0000 C   0  0  0  0  0  0  0  0  0  0  0  0
    1.9239    0.3047    0.0000 S   0  0  0  0  0  0  0  0  0  0  0  0
  1  2  1  0  0  0  0
  2  3  1  0  0  0  0
  3  4  2  0  0  0  0
  4  5  1  0  0  0  0
  1  5  1  0  0  0  0
  4  6  1  0  0  0  0
  6  7  2  0  0  0  0
  7  8  1  0  0  0  0
  8  9  2  0  0  0  0
  9 10  1  0  0  0  0
  6 10  1  0  0  0  0
M  END
>  <Catalog ID>
Z235363021

>  <PlateID>
1198308-R-SPFL-09

>  <Well>
G09

>  <MW (desalted)>
152.217

>  <ClogP>
2.289

>  <HBD>
1

>  <TPSA>
24.390

>  <RotBonds>
1

$$$$

            

 13 13  0  0  0  0            999 V2000
    1.2822    2.3518    0.0000 O   0  0  0  0  0  0  0  0  0  0  0  0
    0.5678    1.9393    0.0000 C   0  0  0  0  0  0  0  0  0  0  0  0
   -0.1467    2.3518    0.0000 O   0  0  0  0  0  0  0  0  0  0  0  0
    0.5678    1.1143    0.0000 C   0  0  0  0  0  0  0  0  0  0  0  0
    1.2352    0.6294    0.0000 C   0  0  0  0  0  0  0  0  0  0  0  0
    0.9803   -0.1553    0.0000 C   0  0  0  0  0  0  0  0  0  0  0  0
    0.1553   -0.1553    0.0000 C   0  0  0  0  0  0  0  0  0  0  0  0
   -0.0997    0.6294    0.0000 N   0  0  0  0  0  0  0  0  0  0  0  0
   -0.8843    0.8843    0.0000 C   0  0  0  0  0  0  0  0  0  0  0  0
   -1.4974    0.3323    0.0000 C   0  0  0  0  0  0  0  0  0  0  0  0
   -2.1105   -0.2198    0.0000 F   0  0  0  0  0  0  0  0  0  0  0  0
   -2.0494    0.9454    0.0000 F   0  0  0  0  0  0  0  0  0  0  0  0
   -0.9454   -0.2808    0.0000 F   0  0  0  0  0  0  0  0  0  0  0  0
  1  2  1  0  0  0  0
  2  3  2  0  0  0  0
  2  4  1  0  0  0  0
  4  5  1  0  0  0  0
  5  6  1  0  0  0  0
  6  7  1  0  0  0  0
  7  8  1  0  0  0  0
  4  8  1  0  0  0  0
  8  9  1  0  0  0  0
  9 10  1  0  0  0  0
 10 11  1  0  0  0  0
 10 12  1  0  0  0  0
 10 13  1  0  0  0  0
M  END
>  <Catalog ID>
Z316121656

>  <PlateID>
1198308-R-SPFL-09

>  <Well>
G10

>  <MW (desalted)>
197.155

>  <ClogP>
-1.244

>  <HBD>
1

>  <TPSA>
40.540

>  <RotBonds>
3

$$$$

            

 15 16  0  0  0  0            999 V2000
    1.4289    0.8250    0.0000 N   0  0  0  0  0  0  0  0  0  0  0  0
    1.4289   -0.0000    0.0000 C   0  0  0  0  0  0  0  0  0  0  0  0
    2.1434   -0.4125    0.0000 O   0  0  0  0  0  0  0  0  0  0  0  0
    0.7145   -0.4125    0.0000 C   0  0  0  0  0  0  0  0  0  0  0  0
    0.7145   -1.2375    0.0000 N   0  0  0  0  0  0  0  0  0  0  0  0
    1.3819   -1.7224    0.0000 C   0  0  0  0  0  0  0  0  0  0  0  0
    1.1270   -2.5070    0.0000 C   0  0  0  0  0  0  0  0  0  0  0  0
    0.3020   -2.5070    0.0000 C   0  0  0  0  0  0  0  0  0  0  0  0
    0.0470   -1.7224    0.0000 C   0  0  0  0  0  0  0  0  0  0  0  0
   -0.7376   -1.4675    0.0000 C   0  0  0  0  0  0  0  0  0  0  0  0
   -1.3507   -2.0195    0.0000 C   0  0  0  0  0  0  0  0  0  0  0  0
   -2.1353   -1.7646    0.0000 C   0  0  0  0  0  0  0  0  0  0  0  0
   -2.3068   -0.9576    0.0000 C   0  0  0  0  0  0  0  0  0  0  0  0
   -1.6937   -0.4056    0.0000 C   0  0  0  0  0  0  0  0  0  0  0  0
   -0.9091   -0.6605    0.0000 C   0  0  0  0  0  0  0  0  0  0  0  0
  1  2  1  0  0  0  0
  2  3  2  0  0  0  0
  2  4  1  0  0  0  0
  4  5  1  0  0  0  0
  5  6  1  0  0  0  0
  6  7  1  0  0  0  0
  7  8  1  0  0  0  0
  8  9  1  0  0  0  0
  5  9  1  0  0  0  0
  9 10  1  0  0  0  0
 10 11  1  0  0  0  0
 11 12  1  0  0  0  0
 12 13  1  0  0  0  0
 13 14  1  0  0  0  0
 14 15  1  0  0  0  0
 10 15  1  0  0  0  0
M  END
>  <Catalog ID>
Z644971758

>  <PlateID>
1198308-R-SPFL-09

>  <Well>
G11

>  <MW (desalted)>
210.316

>  <ClogP>
2.376

>  <HBD>
1

>  <TPSA>
46.330

>  <RotBonds>
3

$$$$

            

 15 16  0  0  0  0            999 V2000
   -0.9237    8.3000    0.0000 C   0  0  0  0  0  0  0  0  0  0  0  0
   -0.2093    7.8875    0.0000 C   0  0  0  0  0  0  0  0  0  0  0  0
    0.5052    8.3000    0.0000 C   0  0  0  0  0  0  0  0  0  0  0  0
    1.2197    7.8875    0.0000 C   0  0  0  0  0  0  0  0  0  0  0  0
    1.2197    7.0625    0.0000 C   0  0  0  0  0  0  0  0  0  0  0  0
    1.9341    6.6500    0.0000 C   0  0  0  0  0  0  0  0  0  0  0  0
    1.9341    5.8250    0.0000 N   0  0  0  0  0  0  0  0  0  0  0  0
    2.6486    5.4125    0.0000 C   0  0  0  0  0  0  0  0  0  0  0  0
    3.3631    5.8250    0.0000 O   0  0  0  0  0  0  0  0  0  0  0  0
    2.6486    4.5875    0.0000 C   0  0  0  0  0  0  0  0  0  0  0  0
    3.2320    4.0042    0.0000 C   0  0  0  0  0  0  0  0  0  0  0  0
    2.6486    3.4208    0.0000 C   0  0  0  0  0  0  0  0  0  0  0  0
    2.0653    4.0042    0.0000 C   0  0  0  0  0  0  0  0  0  0  0  0
    0.5052    6.6500    0.0000 C   0  0  0  0  0  0  0  0  0  0  0  0
   -0.2093    7.0625    0.0000 N   0  0  0  0  0  0  0  0  0  0  0  0
  1  2  1  0  0  0  0
  2  3  2  0  0  0  0
  3  4  1  0  0  0  0
  4  5  2  0  0  0  0
  5  6  1  0  0  0  0
  6  7  1  0  0  0  0
  7  8  1  0  0  0  0
  8  9  2  0  0  0  0
  8 10  1  0  0  0  0
 10 11  1  0  0  0  0
 11 12  1  0  0  0  0
 12 13  1  0  0  0  0
 10 13  1  0  0  0  0
  5 14  1  0  0  0  0
 14 15  2  0  0  0  0
  2 15  1  0  0  0  0
M  END
>  <Catalog ID>
Z437516460

>  <PlateID>
1198308-R-SPFL-09

>  <Well>
H02

>  <MW (desalted)>
204.268

>  <ClogP>
0.865

>  <HBD>
1

>  <TPSA>
41.990

>  <RotBonds>
3

$$$$

            

 11 12  0  0  0  0            999 V2000
    0.6249    6.3095    0.0000 O   0  0  0  0  0  0  0  0  0  0  0  0
    0.2893    5.5559    0.0000 C   0  0  0  0  0  0  0  0  0  0  0  0
   -0.5312    5.4696    0.0000 O   0  0  0  0  0  0  0  0  0  0  0  0
    0.7742    4.8884    0.0000 C   0  0  0  0  0  0  0  0  0  0  0  0
    1.5992    4.8884    0.0000 C   0  0  0  0  0  0  0  0  0  0  0  0
    1.8542    4.1038    0.0000 S   0  0  0  0  0  0  0  0  0  0  0  0
    1.1867    3.6189    0.0000 C   0  0  0  0  0  0  0  0  0  0  0  0
    0.5193    4.1038    0.0000 N   0  0  0  0  0  0  0  0  0  0  0  0
    1.1867    2.7939    0.0000 C   0  0  0  0  0  0  0  0  0  0  0  0
    1.5992    2.0794    0.0000 C   0  0  0  0  0  0  0  0  0  0  0  0
    0.7742    2.0794    0.0000 C   0  0  0  0  0  0  0  0  0  0  0  0
  1  2  1  0  0  0  0
  2  3  2  0  0  0  0
  2  4  1  0  0  0  0
  4  5  2  0  0  0  0
  5  6  1  0  0  0  0
  6  7  1  0  0  0  0
  7  8  2  0  0  0  0
  4  8  1  0  0  0  0
  7  9  1  0  0  0  0
  9 10  1  0  0  0  0
 10 11  1  0  0  0  0
  9 11  1  0  0  0  0
M  END
>  <Catalog ID>
Z381402832

>  <PlateID>
1198308-R-SPFL-09

>  <Well>
H03

>  <MW (desalted)>
169.201

>  <ClogP>
1.774

>  <HBD>
1

>  <TPSA>
50.190

>  <RotBonds>
2

$$$$

            

 13 13  0  0  0  0            999 V2000
    0.0000    0.0000    0.0000 Cl  0  0  0  0  0  0  0  0  0  0  0  0
    2.3571   -0.5954    0.0000 N   0  0  0  0  0  0  0  0  0  0  0  0
    3.1821   -0.5954    0.0000 C   0  0  0  0  0  0  0  0  0  0  0  0
    3.5946    0.1191    0.0000 C   0  0  0  0  0  0  0  0  0  0  0  0
    4.4196    0.1191    0.0000 C   0  0  0  0  0  0  0  0  0  0  0  0
    4.9046    0.7865    0.0000 N   0  0  0  0  0  0  0  0  0  0  0  0
    5.6892    0.5316    0.0000 C   0  0  0  0  0  0  0  0  0  0  0  0
    6.4037    0.9441    0.0000 C   0  0  0  0  0  0  0  0  0  0  0  0
    7.1181    0.5316    0.0000 C   0  0  0  0  0  0  0  0  0  0  0  0
    7.1181   -0.2934    0.0000 C   0  0  0  0  0  0  0  0  0  0  0  0
    6.4037   -0.7059    0.0000 C   0  0  0  0  0  0  0  0  0  0  0  0
    5.6892   -0.2934    0.0000 C   0  0  0  0  0  0  0  0  0  0  0  0
    4.9046   -0.5484    0.0000 S   0  0  0  0  0  0  0  0  0  0  0  0
  2  3  1  0  0  0  0
  3  4  1  0  0  0  0
  4  5  1  0  0  0  0
  5  6  2  0  0  0  0
  6  7  1  0  0  0  0
  7  8  2  0  0  0  0
  8  9  1  0  0  0  0
  9 10  2  0  0  0  0
 10 11  1  0  0  0  0
 11 12  2  0  0  0  0
  7 12  1  0  0  0  0
 12 13  1  0  0  0  0
  5 13  1  0  0  0  0
M  END
>  <Catalog ID>
Z235314939

>  <PlateID>
1198308-R-SPFL-09

>  <Well>
H04

>  <MW (desalted)>
178.254

>  <ClogP>
1.371

>  <HBD>
1

>  <TPSA>
38.910

>  <RotBonds>
2

$$$$

            

 16 18  0  0  0  0            999 V2000
    2.1434   -2.8875    0.0000 O   0  0  0  0  0  0  0  0  0  0  0  0
    1.4289   -2.4750    0.0000 C   0  0  0  0  0  0  0  0  0  0  0  0
    0.7145   -2.8875    0.0000 C   0  0  0  0  0  0  0  0  0  0  0  0
    0.5009   -3.6844    0.0000 C   0  0  0  0  0  0  0  0  0  0  0  0
   -0.2959   -3.4709    0.0000 C   0  0  0  0  0  0  0  0  0  0  0  0
   -0.0824   -2.6740    0.0000 C   0  0  0  0  0  0  0  0  0  0  0  0
    1.4289   -1.6500    0.0000 N   0  0  0  0  0  0  0  0  0  0  0  0
    0.7145   -1.2375    0.0000 C   0  0  0  0  0  0  0  0  0  0  0  0
    0.7145   -0.4125    0.0000 C   0  0  0  0  0  0  0  0  0  0  0  0
    1.4289    0.0000    0.0000 C   0  0  0  0  0  0  0  0  0  0  0  0
    2.1434   -0.4125    0.0000 C   0  0  0  0  0  0  0  0  0  0  0  0
    2.8579    0.0000    0.0000 N   0  0  0  0  0  0  0  0  0  0  0  0
    3.5724   -0.4125    0.0000 C   0  0  0  0  0  0  0  0  0  0  0  0
    3.5724   -1.2375    0.0000 C   0  0  0  0  0  0  0  0  0  0  0  0
    2.8579   -1.6500    0.0000 C   0  0  0  0  0  0  0  0  0  0  0  0
    2.1434   -1.2375    0.0000 C   0  0  0  0  0  0  0  0  0  0  0  0
  1  2  2  0  0  0  0
  2  3  1  0  0  0  0
  3  4  1  0  0  0  0
  4  5  1  0  0  0  0
  5  6  1  0  0  0  0
  3  6  1  0  0  0  0
  2  7  1  0  0  0  0
  7  8  1  0  0  0  0
  8  9  1  0  0  0  0
  9 10  1  0  0  0  0
 10 11  1  0  0  0  0
 11 12  2  0  0  0  0
 12 13  1  0  0  0  0
 13 14  2  0  0  0  0
 14 15  1  0  0  0  0
 15 16  2  0  0  0  0
  7 16  1  0  0  0  0
 11 16  1  0  0  0  0
M  END
>  <Catalog ID>
Z254451362

>  <PlateID>
1198308-R-SPFL-09

>  <Well>
H05

>  <MW (desalted)>
216.279

>  <ClogP>
1.187

>  <HBD>
0

>  <TPSA>
33.200

>  <RotBonds>
1

$$$$

            

 17 17  0  0  0  0            999 V2000
    0.0000    0.0000    0.0000 I   0  0  0  0  0  0  0  0  0  0  0  0
    7.3584    1.6758    0.0000 F   0  0  0  0  0  0  0  0  0  0  0  0
    7.3584    0.8508    0.0000 C   0  0  0  0  0  0  0  0  0  0  0  0
    8.0729    0.4383    0.0000 C   0  0  0  0  0  0  0  0  0  0  0  0
    8.0729   -0.3867    0.0000 C   0  0  0  0  0  0  0  0  0  0  0  0
    7.3584   -0.7992    0.0000 C   0  0  0  0  0  0  0  0  0  0  0  0
    6.6440   -0.3867    0.0000 C   0  0  0  0  0  0  0  0  0  0  0  0
    5.9295   -0.7992    0.0000 C   0  0  0  0  0  0  0  0  0  0  0  0
    5.2150   -0.3867    0.0000 C   0  0  0  0  0  0  0  0  0  0  0  0
    4.5006   -0.7992    0.0000 N   0  0  0  0  0  0  0  0  0  0  0  0
    3.7861   -0.3867    0.0000 C   0  0  0  0  0  0  0  0  0  0  0  0
    3.0716   -0.7992    0.0000 N   0  0  0  0  0  0  0  0  0  0  0  0
    2.3571   -0.3867    0.0000 C   0  0  0  0  0  0  0  0  0  0  0  0
    2.3571    0.4383    0.0000 C   0  0  0  0  0  0  0  0  0  0  0  0
    3.0716    0.8508    0.0000 C   0  0  0  0  0  0  0  0  0  0  0  0
    3.7861    0.4383    0.0000 N   0  0  0  0  0  0  0  0  0  0  0  0
    6.6440    0.4383    0.0000 C   0  0  0  0  0  0  0  0  0  0  0  0
  2  3  1  0  0  0  0
  3  4  2  0  0  0  0
  4  5  1  0  0  0  0
  5  6  2  0  0  0  0
  6  7  1  0  0  0  0
  7  8  1  0  0  0  0
  8  9  1  0  0  0  0
  9 10  1  0  0  0  0
 10 11  1  0  0  0  0
 11 12  2  0  0  0  0
 12 13  1  0  0  0  0
 13 14  1  0  0  0  0
 14 15  1  0  0  0  0
 15 16  1  0  0  0  0
 11 16  1  0  0  0  0
  7 17  2  0  0  0  0
  3 17  1  0  0  0  0
M  END
>  <Catalog ID>
Z1090000444

>  <PlateID>
1198308-R-SPFL-09

>  <Well>
H06

>  <MW (desalted)>
221.274

>  <ClogP>
0.503

>  <HBD>
2

>  <TPSA>
36.420

>  <RotBonds>
3

$$$$

            

 14 15  0  0  0  0            999 V2000
   -0.0761    6.3632    0.0000 C   0  0  0  0  0  0  0  0  0  0  0  0
    0.7444    6.4494    0.0000 C   0  0  0  0  0  0  0  0  0  0  0  0
    1.1569    7.1639    0.0000 C   0  0  0  0  0  0  0  0  0  0  0  0
    1.9639    6.9924    0.0000 S   0  0  0  0  0  0  0  0  0  0  0  0
    2.0501    6.1719    0.0000 C   0  0  0  0  0  0  0  0  0  0  0  0
    2.7646    5.7594    0.0000 C   0  0  0  0  0  0  0  0  0  0  0  0
    2.7646    4.9344    0.0000 N   0  0  0  0  0  0  0  0  0  0  0  0
    3.4791    4.5219    0.0000 C   0  0  0  0  0  0  0  0  0  0  0  0
    4.1935    4.9344    0.0000 O   0  0  0  0  0  0  0  0  0  0  0  0
    3.4791    3.6969    0.0000 C   0  0  0  0  0  0  0  0  0  0  0  0
    4.0624    3.1135    0.0000 C   0  0  0  0  0  0  0  0  0  0  0  0
    3.4791    2.5302    0.0000 C   0  0  0  0  0  0  0  0  0  0  0  0
    2.8957    3.1135    0.0000 C   0  0  0  0  0  0  0  0  0  0  0  0
    1.2964    5.8363    0.0000 N   0  0  0  0  0  0  0  0  0  0  0  0
  1  2  1  0  0  0  0
  2  3  2  0  0  0  0
  3  4  1  0  0  0  0
  4  5  1  0  0  0  0
  5  6  1  0  0  0  0
  6  7  1  0  0  0  0
  7  8  1  0  0  0  0
  8  9  2  0  0  0  0
  8 10  1  0  0  0  0
 10 11  1  0  0  0  0
 11 12  1  0  0  0  0
 12 13  1  0  0  0  0
 10 13  1  0  0  0  0
  5 14  2  0  0  0  0
  2 14  1  0  0  0  0
M  END
>  <Catalog ID>
Z212122838

>  <PlateID>
1198308-R-SPFL-09

>  <Well>
H07

>  <MW (desalted)>
210.296

>  <ClogP>
0.706

>  <HBD>
1

>  <TPSA>
41.990

>  <RotBonds>
3

$$$$

            

 11 11  0  0  0  0            999 V2000
   -0.7145    3.7125    0.0000 O   0  0  0  0  0  0  0  0  0  0  0  0
    0.0000    3.3000    0.0000 C   0  0  0  0  0  0  0  0  0  0  0  0
    0.7145    3.7125    0.0000 O   0  0  0  0  0  0  0  0  0  0  0  0
    0.0000    2.4750    0.0000 C   0  0  0  0  0  0  0  0  0  0  0  0
    0.7145    2.0625    0.0000 O   0  0  0  0  0  0  0  0  0  0  0  0
    0.7145    1.2375    0.0000 C   0  0  0  0  0  0  0  0  0  0  0  0
    1.4289    0.8250    0.0000 C   0  0  0  0  0  0  0  0  0  0  0  0
    1.4289   -0.0000    0.0000 C   0  0  0  0  0  0  0  0  0  0  0  0
    0.7145   -0.4125    0.0000 C   0  0  0  0  0  0  0  0  0  0  0  0
    0.0000    0.0000    0.0000 C   0  0  0  0  0  0  0  0  0  0  0  0
    0.0000    0.8250    0.0000 C   0  0  0  0  0  0  0  0  0  0  0  0
  1  2  1  0  0  0  0
  2  3  2  0  0  0  0
  2  4  1  0  0  0  0
  4  5  1  0  0  0  0
  5  6  1  0  0  0  0
  6  7  2  0  0  0  0
  7  8  1  0  0  0  0
  8  9  2  0  0  0  0
  9 10  1  0  0  0  0
 10 11  2  0  0  0  0
  6 11  1  0  0  0  0
M  END
>  <Catalog ID>
Z57182011

>  <PlateID>
1198308-R-SPFL-09

>  <Well>
H08

>  <MW (desalted)>
152.147

>  <ClogP>
1.350

>  <HBD>
1

>  <TPSA>
46.530

>  <RotBonds>
3

$$$$

            

 12 13  0  0  0  0            999 V2000
    0.0000   -0.0000    0.0000 C   0  0  0  0  0  0  0  0  0  0  0  0
    0.7145   -0.4125    0.0000 N   0  0  0  0  0  0  0  0  0  0  0  0
    1.4289    0.0000    0.0000 C   0  0  0  0  0  0  0  0  0  0  0  0
    2.1434   -0.4125    0.0000 C   0  0  0  0  0  0  0  0  0  0  0  0
    2.8579    0.0000    0.0000 C   0  0  0  0  0  0  0  0  0  0  0  0
    3.5724   -0.4125    0.0000 C   0  0  0  0  0  0  0  0  0  0  0  0
    3.5724   -1.2375    0.0000 C   0  0  0  0  0  0  0  0  0  0  0  0
    2.8579   -1.6500    0.0000 C   0  0  0  0  0  0  0  0  0  0  0  0
    2.1434   -1.2375    0.0000 C   0  0  0  0  0  0  0  0  0  0  0  0
    1.4289   -1.6500    0.0000 N   0  0  0  0  0  0  0  0  0  0  0  0
    0.7145   -1.2375    0.0000 C   0  0  0  0  0  0  0  0  0  0  0  0
    0.0000   -1.6500    0.0000 O   0  0  0  0  0  0  0  0  0  0  0  0
  1  2  1  0  0  0  0
  2  3  1  0  0  0  0
  3  4  1  0  0  0  0
  4  5  2  0  0  0  0
  5  6  1  0  0  0  0
  6  7  2  0  0  0  0
  7  8  1  0  0  0  0
  8  9  2  0  0  0  0
  4  9  1  0  0  0  0
  9 10  1  0  0  0  0
 10 11  1  0  0  0  0
  2 11  1  0  0  0  0
 11 12  2  0  0  0  0
M  END
>  <Catalog ID>
Z104476152

>  <PlateID>
1198308-R-SPFL-09

>  <Well>
H09

>  <MW (desalted)>
162.189

>  <ClogP>
1.033

>  <HBD>
1

>  <TPSA>
32.340

>  <RotBonds>
0

$$$$

            

 15 16  0  0  0  0            999 V2000
    1.4289   -1.6500    0.0000 C   0  0  0  0  0  0  0  0  0  0  0  0
    1.4289   -2.4750    0.0000 C   0  0  0  0  0  0  0  0  0  0  0  0
    2.1434   -2.8875    0.0000 C   0  0  0  0  0  0  0  0  0  0  0  0
    2.1434   -3.7125    0.0000 C   0  0  0  0  0  0  0  0  0  0  0  0
    1.4289   -4.1250    0.0000 C   0  0  0  0  0  0  0  0  0  0  0  0
    1.4289   -4.9500    0.0000 N   0  0  0  0  0  0  0  0  0  0  0  0
    2.1434   -5.3625    0.0000 C   0  0  0  0  0  0  0  0  0  0  0  0
    2.1434   -6.1875    0.0000 C   0  0  0  0  0  0  0  0  0  0  0  0
    2.8579   -6.6000    0.0000 C   0  0  0  0  0  0  0  0  0  0  0  0
    2.8579   -7.4250    0.0000 C   0  0  0  0  0  0  0  0  0  0  0  0
    2.1434   -7.8375    0.0000 C   0  0  0  0  0  0  0  0  0  0  0  0
    1.4289   -7.4250    0.0000 C   0  0  0  0  0  0  0  0  0  0  0  0
    1.4289   -6.6000    0.0000 C   0  0  0  0  0  0  0  0  0  0  0  0
    0.7145   -3.7125    0.0000 N   0  0  0  0  0  0  0  0  0  0  0  0
    0.7145   -2.8875    0.0000 N   0  0  0  0  0  0  0  0  0  0  0  0
  1  2  1  0  0  0  0
  2  3  2  0  0  0  0
  3  4  1  0  0  0  0
  4  5  2  0  0  0  0
  5  6  1  0  0  0  0
  6  7  1  0  0  0  0
  7  8  1  0  0  0  0
  8  9  2  0  0  0  0
  9 10  1  0  0  0  0
 10 11  2  0  0  0  0
 11 12  1  0  0  0  0
 12 13  2  0  0  0  0
  8 13  1  0  0  0  0
  5 14  1  0  0  0  0
 14 15  2  0  0  0  0
  2 15  1  0  0  0  0
M  END
>  <Catalog ID>
Z802821732

>  <PlateID>
1198308-R-SPFL-09

>  <Well>
H10

>  <MW (desalted)>
199.252

>  <ClogP>
2.322

>  <HBD>
1

>  <TPSA>
37.810

>  <RotBonds>
3

$$$$

            

 14 15  0  0  0  0            999 V2000
    2.0367   -0.4741    0.0000 C   0  0  0  0  0  0  0  0  0  0  0  0
    2.0367   -1.2991    0.0000 C   0  0  0  0  0  0  0  0  0  0  0  0
    2.7041   -1.7840    0.0000 N   0  0  0  0  0  0  0  0  0  0  0  0
    2.4492   -2.5687    0.0000 O   0  0  0  0  0  0  0  0  0  0  0  0
    1.6242   -2.5687    0.0000 C   0  0  0  0  0  0  0  0  0  0  0  0
    1.1393   -3.2361    0.0000 C   0  0  0  0  0  0  0  0  0  0  0  0
    1.3693   -1.7840    0.0000 C   0  0  0  0  0  0  0  0  0  0  0  0
    0.5846   -1.5291    0.0000 C   0  0  0  0  0  0  0  0  0  0  0  0
    0.4131   -0.7221    0.0000 N   0  0  0  0  0  0  0  0  0  0  0  0
   -0.3715   -0.4672    0.0000 C   0  0  0  0  0  0  0  0  0  0  0  0
   -0.5430    0.3398    0.0000 C   0  0  0  0  0  0  0  0  0  0  0  0
    0.0701    0.8918    0.0000 S   0  0  0  0  0  0  0  0  0  0  0  0
    0.8547    0.6369    0.0000 C   0  0  0  0  0  0  0  0  0  0  0  0
    1.0262   -0.1701    0.0000 C   0  0  0  0  0  0  0  0  0  0  0  0
  1  2  1  0  0  0  0
  2  3  2  0  0  0  0
  3  4  1  0  0  0  0
  4  5  1  0  0  0  0
  5  6  1  0  0  0  0
  5  7  2  0  0  0  0
  2  7  1  0  0  0  0
  7  8  1  0  0  0  0
  8  9  1  0  0  0  0
  9 10  1  0  0  0  0
 10 11  1  0  0  0  0
 11 12  1  0  0  0  0
 12 13  1  0  0  0  0
 13 14  1  0  0  0  0
  9 14  1  0  0  0  0
M  END
>  <Catalog ID>
Z433867696

>  <PlateID>
1198308-R-SPFL-09

>  <Well>
H11

>  <MW (desalted)>
212.312

>  <ClogP>
1.041

>  <HBD>
0

>  <TPSA>
29.270

>  <RotBonds>
2

$$$$

            

 16 18  0  0  0  0            999 V2000
    3.2789    2.0625    0.0000 O   0  0  0  0  0  0  0  0  0  0  0  0
    3.2789    1.2375    0.0000 C   0  0  0  0  0  0  0  0  0  0  0  0
    3.9934    0.8250    0.0000 N   0  0  0  0  0  0  0  0  0  0  0  0
    3.9934    0.0000    0.0000 N   0  0  0  0  0  0  0  0  0  0  0  0
    3.2789   -0.4125    0.0000 C   0  0  0  0  0  0  0  0  0  0  0  0
    2.5645    0.0000    0.0000 C   0  0  0  0  0  0  0  0  0  0  0  0
    1.7798   -0.2549    0.0000 N   0  0  0  0  0  0  0  0  0  0  0  0
    1.2949    0.4125    0.0000 N   0  0  0  0  0  0  0  0  0  0  0  0
    1.7798    1.0799    0.0000 C   0  0  0  0  0  0  0  0  0  0  0  0
    2.5645    0.8250    0.0000 C   0  0  0  0  0  0  0  0  0  0  0  0
    1.5249   -1.0396    0.0000 C   0  0  0  0  0  0  0  0  0  0  0  0
    2.0769   -1.6527    0.0000 C   0  0  0  0  0  0  0  0  0  0  0  0
    1.8220   -2.4373    0.0000 C   0  0  0  0  0  0  0  0  0  0  0  0
    1.0150   -2.6088    0.0000 C   0  0  0  0  0  0  0  0  0  0  0  0
    0.4630   -1.9957    0.0000 C   0  0  0  0  0  0  0  0  0  0  0  0
    0.7179   -1.2111    0.0000 C   0  0  0  0  0  0  0  0  0  0  0  0
  1  2  2  0  0  0  0
  2  3  1  0  0  0  0
  3  4  1  0  0  0  0
  4  5  2  0  0  0  0
  5  6  1  0  0  0  0
  6  7  1  0  0  0  0
  7  8  1  0  0  0  0
  8  9  2  0  0  0  0
  9 10  1  0  0  0  0
  2 10  1  0  0  0  0
  6 10  2  0  0  0  0
  7 11  1  0  0  0  0
 11 12  2  0  0  0  0
 12 13  1  0  0  0  0
 13 14  2  0  0  0  0
 14 15  1  0  0  0  0
 15 16  2  0  0  0  0
 11 16  1  0  0  0  0
M  END
>  <Catalog ID>
Z2238619432

>  <PlateID>
1198308-R-SPFL-10

>  <Well>
A02

>  <MW (desalted)>
212.207

>  <ClogP>
0.520

>  <HBD>
1

>  <TPSA>
59.280

>  <RotBonds>
1

$$$$

            

 11 11  0  0  0  0            999 V2000
   -0.7145    3.7125    0.0000 O   0  0  0  0  0  0  0  0  0  0  0  0
    0.0000    3.3000    0.0000 C   0  0  0  0  0  0  0  0  0  0  0  0
    0.7145    3.7125    0.0000 O   0  0  0  0  0  0  0  0  0  0  0  0
    0.0000    2.4750    0.0000 C   0  0  0  0  0  0  0  0  0  0  0  0
    0.7145    2.0625    0.0000 O   0  0  0  0  0  0  0  0  0  0  0  0
    0.7145    1.2375    0.0000 C   0  0  0  0  0  0  0  0  0  0  0  0
    1.4289    0.8250    0.0000 C   0  0  0  0  0  0  0  0  0  0  0  0
    1.4289   -0.0000    0.0000 C   0  0  0  0  0  0  0  0  0  0  0  0
    0.7145   -0.4125    0.0000 C   0  0  0  0  0  0  0  0  0  0  0  0
    0.0000    0.0000    0.0000 C   0  0  0  0  0  0  0  0  0  0  0  0
    0.0000    0.8250    0.0000 C   0  0  0  0  0  0  0  0  0  0  0  0
  1  2  1  0  0  0  0
  2  3  2  0  0  0  0
  2  4  1  0  0  0  0
  4  5  1  0  0  0  0
  5  6  1  0  0  0  0
  6  7  1  0  0  0  0
  7  8  1  0  0  0  0
  8  9  1  0  0  0  0
  9 10  1  0  0  0  0
 10 11  1  0  0  0  0
  6 11  1  0  0  0  0
M  END
>  <Catalog ID>
Z316258722

>  <PlateID>
1198308-R-SPFL-10

>  <Well>
A03

>  <MW (desalted)>
158.195

>  <ClogP>
1.640

>  <HBD>
1

>  <TPSA>
46.530

>  <RotBonds>
3

$$$$

            

 13 12  0  0  0  0            999 V2000
    0.0000    0.0000    0.0000 Cl  0  0  0  0  0  0  0  0  0  0  0  0
    4.0472    1.9562    0.0000 C   0  0  0  0  0  0  0  0  0  0  0  0
    3.3327    1.5437    0.0000 C   0  0  0  0  0  0  0  0  0  0  0  0
    2.6182    1.9562    0.0000 N   0  0  0  0  0  0  0  0  0  0  0  0
    3.3327    0.7187    0.0000 C   0  0  0  0  0  0  0  0  0  0  0  0
    4.0002    0.2338    0.0000 C   0  0  0  0  0  0  0  0  0  0  0  0
    3.7452   -0.5509    0.0000 N   0  0  0  0  0  0  0  0  0  0  0  0
    2.9202   -0.5509    0.0000 C   0  0  0  0  0  0  0  0  0  0  0  0
    2.6653    0.2338    0.0000 S   0  0  0  0  0  0  0  0  0  0  0  0
    2.4353   -1.2183    0.0000 C   0  0  0  0  0  0  0  0  0  0  0  0
    1.9504   -1.8857    0.0000 F   0  0  0  0  0  0  0  0  0  0  0  0
    1.7679   -0.7334    0.0000 F   0  0  0  0  0  0  0  0  0  0  0  0
    3.1027   -1.7032    0.0000 F   0  0  0  0  0  0  0  0  0  0  0  0
  2  3  1  0  0  0  0
  3  4  1  0  0  0  0
  3  5  1  0  0  0  0
  5  6  2  0  0  0  0
  6  7  1  0  0  0  0
  7  8  2  0  0  0  0
  8  9  1  0  0  0  0
  5  9  1  0  0  0  0
  8 10  1  0  0  0  0
 10 11  1  0  0  0  0
 10 12  1  0  0  0  0
 10 13  1  0  0  0  0
M  END
>  <Catalog ID>
Z2503612020

>  <PlateID>
1198308-R-SPFL-10

>  <Well>
A04

>  <MW (desalted)>
196.193

>  <ClogP>
0.746

>  <HBD>
1

>  <TPSA>
38.910

>  <RotBonds>
2

$$$$

            

 14 15  0  0  0  0            999 V2000
    1.3222    5.5902    0.0000 O   0  0  0  0  0  0  0  0  0  0  0  0
    1.3222    4.7652    0.0000 C   0  0  0  0  0  0  0  0  0  0  0  0
    0.6078    4.3527    0.0000 O   0  0  0  0  0  0  0  0  0  0  0  0
    2.0367    4.3527    0.0000 C   0  0  0  0  0  0  0  0  0  0  0  0
    2.7512    4.7652    0.0000 C   0  0  0  0  0  0  0  0  0  0  0  0
    3.4656    4.3527    0.0000 C   0  0  0  0  0  0  0  0  0  0  0  0
    3.4656    3.5277    0.0000 C   0  0  0  0  0  0  0  0  0  0  0  0
    2.7512    3.1152    0.0000 C   0  0  0  0  0  0  0  0  0  0  0  0
    2.0367    3.5277    0.0000 C   0  0  0  0  0  0  0  0  0  0  0  0
    2.7512    2.2902    0.0000 N   0  0  0  0  0  0  0  0  0  0  0  0
    3.4186    1.8053    0.0000 C   0  0  0  0  0  0  0  0  0  0  0  0
    3.1637    1.0206    0.0000 C   0  0  0  0  0  0  0  0  0  0  0  0
    2.3387    1.0206    0.0000 C   0  0  0  0  0  0  0  0  0  0  0  0
    2.0837    1.8053    0.0000 N   0  0  0  0  0  0  0  0  0  0  0  0
  1  2  1  0  0  0  0
  2  3  2  0  0  0  0
  2  4  1  0  0  0  0
  4  5  2  0  0  0  0
  5  6  1  0  0  0  0
  6  7  2  0  0  0  0
  7  8  1  0  0  0  0
  8  9  2  0  0  0  0
  4  9  1  0  0  0  0
  8 10  1  0  0  0  0
 10 11  1  0  0  0  0
 11 12  2  0  0  0  0
 12 13  1  0  0  0  0
 13 14  2  0  0  0  0
 10 14  1  0  0  0  0
M  END
>  <Catalog ID>
Z339275020

>  <PlateID>
1198308-R-SPFL-10

>  <Well>
A05

>  <MW (desalted)>
188.183

>  <ClogP>
2.180

>  <HBD>
1

>  <TPSA>
55.120

>  <RotBonds>
2

$$$$

            

 13 14  0  0  0  0            999 V2000
    0.8838   -2.1500    0.0000 C   0  0  0  0  0  0  0  0  0  0  0  0
    1.1387   -1.3654    0.0000 C   0  0  0  0  0  0  0  0  0  0  0  0
    0.6538   -0.6979    0.0000 N   0  0  0  0  0  0  0  0  0  0  0  0
    1.1387   -0.0305    0.0000 N   0  0  0  0  0  0  0  0  0  0  0  0
    0.8838    0.7541    0.0000 C   0  0  0  0  0  0  0  0  0  0  0  0
    1.9233   -0.2854    0.0000 C   0  0  0  0  0  0  0  0  0  0  0  0
    2.6378    0.1271    0.0000 N   0  0  0  0  0  0  0  0  0  0  0  0
    3.3523   -0.2854    0.0000 C   0  0  0  0  0  0  0  0  0  0  0  0
    3.3523   -1.1104    0.0000 C   0  0  0  0  0  0  0  0  0  0  0  0
    4.0668   -1.5229    0.0000 C   0  0  0  0  0  0  0  0  0  0  0  0
    4.7812   -1.9354    0.0000 N   0  0  0  0  0  0  0  0  0  0  0  0
    2.6378   -1.5229    0.0000 C   0  0  0  0  0  0  0  0  0  0  0  0
    1.9233   -1.1104    0.0000 C   0  0  0  0  0  0  0  0  0  0  0  0
  1  2  1  0  0  0  0
  2  3  2  0  0  0  0
  3  4  1  0  0  0  0
  4  5  1  0  0  0  0
  4  6  1  0  0  0  0
  6  7  2  0  0  0  0
  7  8  1  0  0  0  0
  8  9  2  0  0  0  0
  9 10  1  0  0  0  0
 10 11  3  0  0  0  0
  9 12  1  0  0  0  0
 12 13  2  0  0  0  0
  2 13  1  0  0  0  0
  6 13  1  0  0  0  0
M  END
>  <Catalog ID>
Z740432690

>  <PlateID>
1198308-R-SPFL-10

>  <Well>
A06

>  <MW (desalted)>
172.187

>  <ClogP>
0.355

>  <HBD>
0

>  <TPSA>
54.500

>  <RotBonds>
0

$$$$

            

 13 14  0  0  0  0            999 V2000
    2.0367   -0.4741    0.0000 O   0  0  0  0  0  0  0  0  0  0  0  0
    2.0367   -1.2991    0.0000 C   0  0  0  0  0  0  0  0  0  0  0  0
    2.7041   -1.7840    0.0000 C   0  0  0  0  0  0  0  0  0  0  0  0
    2.4492   -2.5687    0.0000 N   0  0  0  0  0  0  0  0  0  0  0  0
    1.6242   -2.5687    0.0000 N   0  0  0  0  0  0  0  0  0  0  0  0
    1.1393   -3.2361    0.0000 C   0  0  0  0  0  0  0  0  0  0  0  0
    0.3188   -3.1499    0.0000 C   0  0  0  0  0  0  0  0  0  0  0  0
   -0.1661   -3.8173    0.0000 C   0  0  0  0  0  0  0  0  0  0  0  0
   -0.9866   -3.7311    0.0000 C   0  0  0  0  0  0  0  0  0  0  0  0
   -1.3222   -2.9774    0.0000 C   0  0  0  0  0  0  0  0  0  0  0  0
   -0.8372   -2.3099    0.0000 C   0  0  0  0  0  0  0  0  0  0  0  0
   -0.0168   -2.3962    0.0000 C   0  0  0  0  0  0  0  0  0  0  0  0
    1.3693   -1.7840    0.0000 C   0  0  0  0  0  0  0  0  0  0  0  0
  1  2  1  0  0  0  0
  2  3  1  0  0  0  0
  3  4  2  0  0  0  0
  4  5  1  0  0  0  0
  5  6  1  0  0  0  0
  6  7  1  0  0  0  0
  7  8  2  0  0  0  0
  8  9  1  0  0  0  0
  9 10  2  0  0  0  0
 10 11  1  0  0  0  0
 11 12  2  0  0  0  0
  7 12  1  0  0  0  0
  5 13  1  0  0  0  0
  2 13  2  0  0  0  0
M  END
>  <Catalog ID>
Z1618133702

>  <PlateID>
1198308-R-SPFL-10

>  <Well>
A07

>  <MW (desalted)>
174.199

>  <ClogP>
2.017

>  <HBD>
1

>  <TPSA>
38.050

>  <RotBonds>
2

$$$$

            

 11 12  0  0  0  0            999 V2000
    1.3819   -1.7224    0.0000 C   0  0  0  0  0  0  0  0  0  0  0  0
    1.1270   -2.5070    0.0000 N   0  0  0  0  0  0  0  0  0  0  0  0
    0.3020   -2.5070    0.0000 N   0  0  0  0  0  0  0  0  0  0  0  0
    0.0470   -1.7224    0.0000 C   0  0  0  0  0  0  0  0  0  0  0  0
    0.7145   -1.2375    0.0000 C   0  0  0  0  0  0  0  0  0  0  0  0
    0.7145   -0.4125    0.0000 C   0  0  0  0  0  0  0  0  0  0  0  0
    0.0000    0.0000    0.0000 C   0  0  0  0  0  0  0  0  0  0  0  0
    0.0000    0.8250    0.0000 C   0  0  0  0  0  0  0  0  0  0  0  0
    0.7145    1.2375    0.0000 N   0  0  0  0  0  0  0  0  0  0  0  0
    1.4289    0.8250    0.0000 C   0  0  0  0  0  0  0  0  0  0  0  0
    1.4289   -0.0000    0.0000 N   0  0  0  0  0  0  0  0  0  0  0  0
  1  2  2  0  0  0  0
  2  3  1  0  0  0  0
  3  4  1  0  0  0  0
  4  5  2  0  0  0  0
  1  5  1  0  0  0  0
  5  6  1  0  0  0  0
  6  7  2  0  0  0  0
  7  8  1  0  0  0  0
  8  9  2  0  0  0  0
  9 10  1  0  0  0  0
 10 11  2  0  0  0  0
  6 11  1  0  0  0  0
M  END
>  <Catalog ID>
Z1201621762

>  <PlateID>
1198308-R-SPFL-10

>  <Well>
A08

>  <MW (desalted)>
146.149

>  <ClogP>
0.103

>  <HBD>
1

>  <TPSA>
54.460

>  <RotBonds>
1

$$$$

            

 15 14  0  0  0  0            999 V2000
    0.0000    0.0000    0.0000 Cl  0  0  0  0  0  0  0  0  0  0  0  0
    2.0036    0.0000    0.0000 Cl  0  0  0  0  0  0  0  0  0  0  0  0
    0.2590   -1.6500    0.0000 C   0  0  0  0  0  0  0  0  0  0  0  0
    0.4426   -2.4543    0.0000 N   0  0  0  0  0  0  0  0  0  0  0  0
    1.2469   -2.6379    0.0000 C   0  0  0  0  0  0  0  0  0  0  0  0
    1.6048   -3.3812    0.0000 C   0  0  0  0  0  0  0  0  0  0  0  0
    1.2469   -4.1245    0.0000 C   0  0  0  0  0  0  0  0  0  0  0  0
    0.4426   -4.3081    0.0000 C   0  0  0  0  0  0  0  0  0  0  0  0
    0.2590   -5.1124    0.0000 N   0  0  0  0  0  0  0  0  0  0  0  0
   -0.2025   -3.7937    0.0000 C   0  0  0  0  0  0  0  0  0  0  0  0
   -0.9169   -4.2062    0.0000 C   0  0  0  0  0  0  0  0  0  0  0  0
   -1.6314   -3.7937    0.0000 C   0  0  0  0  0  0  0  0  0  0  0  0
   -1.6314   -2.9687    0.0000 C   0  0  0  0  0  0  0  0  0  0  0  0
   -0.9169   -2.5562    0.0000 C   0  0  0  0  0  0  0  0  0  0  0  0
   -0.2025   -2.9687    0.0000 C   0  0  0  0  0  0  0  0  0  0  0  0
  3  4  1  0  0  0  0
  4  5  1  0  0  0  0
  5  6  1  0  0  0  0
  6  7  1  0  0  0  0
  7  8  1  0  0  0  0
  8  9  1  0  0  0  0
  8 10  1  0  0  0  0
 10 11  2  0  0  0  0
 11 12  1  0  0  0  0
 12 13  2  0  0  0  0
 13 14  1  0  0  0  0
 14 15  2  0  0  0  0
  4 15  1  0  0  0  0
 10 15  1  0  0  0  0
M  END
>  <Catalog ID>
Z3218022278

>  <PlateID>
1198308-R-SPFL-10

>  <Well>
A09

>  <MW (desalted)>
176.258

>  <ClogP>
1.883

>  <HBD>
1

>  <TPSA>
29.260

>  <RotBonds>
0

$$$$

            

 12 11  0  0  0  0            999 V2000
    0.0000    0.0000    0.0000 Cl  0  0  0  0  0  0  0  0  0  0  0  0
    1.7679    1.5375    0.0000 F   0  0  0  0  0  0  0  0  0  0  0  0
    2.4823    1.1250    0.0000 C   0  0  0  0  0  0  0  0  0  0  0  0
    2.0698    0.4105    0.0000 F   0  0  0  0  0  0  0  0  0  0  0  0
    2.8948    1.8395    0.0000 F   0  0  0  0  0  0  0  0  0  0  0  0
    3.1968    0.7125    0.0000 C   0  0  0  0  0  0  0  0  0  0  0  0
    3.1968   -0.1125    0.0000 C   0  0  0  0  0  0  0  0  0  0  0  0
    3.9113   -0.5250    0.0000 C   0  0  0  0  0  0  0  0  0  0  0  0
    3.9113   -1.3500    0.0000 N   0  0  0  0  0  0  0  0  0  0  0  0
    3.1968   -1.7625    0.0000 C   0  0  0  0  0  0  0  0  0  0  0  0
    2.4823   -1.3500    0.0000 C   0  0  0  0  0  0  0  0  0  0  0  0
    2.4823   -0.5250    0.0000 O   0  0  0  0  0  0  0  0  0  0  0  0
  2  3  1  0  0  0  0
  3  4  1  0  0  0  0
  3  5  1  0  0  0  0
  3  6  1  0  0  0  0
  6  7  1  0  0  0  0
  7  8  1  0  0  0  0
  8  9  1  0  0  0  0
  9 10  1  0  0  0  0
 10 11  1  0  0  0  0
 11 12  1  0  0  0  0
  7 12  1  0  0  0  0
M  END
>  <Catalog ID>
Z2583551075

>  <PlateID>
1198308-R-SPFL-10

>  <Well>
A10

>  <MW (desalted)>
169.145

>  <ClogP>
0.504

>  <HBD>
1

>  <TPSA>
21.260

>  <RotBonds>
2

$$$$

            

 12 13  0  0  0  0            999 V2000
   -0.6078   -0.4741    0.0000 C   0  0  0  0  0  0  0  0  0  0  0  0
   -1.3222   -0.0616    0.0000 C   0  0  0  0  0  0  0  0  0  0  0  0
   -2.0367   -0.4741    0.0000 C   0  0  0  0  0  0  0  0  0  0  0  0
   -2.7512   -0.0616    0.0000 C   0  0  0  0  0  0  0  0  0  0  0  0
   -2.7512    0.7634    0.0000 C   0  0  0  0  0  0  0  0  0  0  0  0
   -2.0367    1.1759    0.0000 C   0  0  0  0  0  0  0  0  0  0  0  0
   -1.3222    0.7634    0.0000 N   0  0  0  0  0  0  0  0  0  0  0  0
   -0.6078   -1.2991    0.0000 N   0  0  0  0  0  0  0  0  0  0  0  0
    0.0597   -1.7840    0.0000 C   0  0  0  0  0  0  0  0  0  0  0  0
   -0.1953   -2.5687    0.0000 C   0  0  0  0  0  0  0  0  0  0  0  0
   -1.0203   -2.5687    0.0000 C   0  0  0  0  0  0  0  0  0  0  0  0
   -1.2752   -1.7840    0.0000 N   0  0  0  0  0  0  0  0  0  0  0  0
  1  2  1  0  0  0  0
  2  3  1  0  0  0  0
  3  4  1  0  0  0  0
  4  5  1  0  0  0  0
  5  6  1  0  0  0  0
  6  7  1  0  0  0  0
  2  7  1  0  0  0  0
  1  8  1  0  0  0  0
  8  9  1  0  0  0  0
  9 10  2  0  0  0  0
 10 11  1  0  0  0  0
 11 12  2  0  0  0  0
  8 12  1  0  0  0  0
M  END
>  <Catalog ID>
Z839498412

>  <PlateID>
1198308-R-SPFL-10

>  <Well>
A11

>  <MW (desalted)>
165.236

>  <ClogP>
1.007

>  <HBD>
1

>  <TPSA>
29.850

>  <RotBonds>
2

$$$$

            

 10 10  0  0  0  0            999 V2000
    0.5678    1.9393    0.0000 C   0  0  0  0  0  0  0  0  0  0  0  0
    0.5678    1.1143    0.0000 C   0  0  0  0  0  0  0  0  0  0  0  0
    1.2352    0.6294    0.0000 C   0  0  0  0  0  0  0  0  0  0  0  0
    0.9803   -0.1553    0.0000 C   0  0  0  0  0  0  0  0  0  0  0  0
    1.4652   -0.8227    0.0000 C   0  0  0  0  0  0  0  0  0  0  0  0
    1.1296   -1.5764    0.0000 C   0  0  0  0  0  0  0  0  0  0  0  0
    1.6145   -2.2438    0.0000 O   0  0  0  0  0  0  0  0  0  0  0  0
    0.3091   -1.6626    0.0000 O   0  0  0  0  0  0  0  0  0  0  0  0
    0.1553   -0.1553    0.0000 N   0  0  0  0  0  0  0  0  0  0  0  0
   -0.0997    0.6294    0.0000 O   0  0  0  0  0  0  0  0  0  0  0  0
  1  2  1  0  0  0  0
  2  3  2  0  0  0  0
  3  4  1  0  0  0  0
  4  5  1  0  0  0  0
  5  6  1  0  0  0  0
  6  7  2  0  0  0  0
  6  8  1  0  0  0  0
  4  9  2  0  0  0  0
  9 10  1  0  0  0  0
  2 10  1  0  0  0  0
M  END
>  <Catalog ID>
Z1194052187

>  <PlateID>
1198308-R-SPFL-10

>  <Well>
B02

>  <MW (desalted)>
141.125

>  <ClogP>
-0.338

>  <HBD>
1

>  <TPSA>
63.330

>  <RotBonds>
2

$$$$

            

 12 13  0  0  0  0            999 V2000
    0.7145   -0.4125    0.0000 N   0  0  0  0  0  0  0  0  0  0  0  0
    0.7145   -1.2375    0.0000 C   0  0  0  0  0  0  0  0  0  0  0  0
    1.3819   -1.7224    0.0000 N   0  0  0  0  0  0  0  0  0  0  0  0
    1.1270   -2.5070    0.0000 C   0  0  0  0  0  0  0  0  0  0  0  0
    0.3020   -2.5070    0.0000 C   0  0  0  0  0  0  0  0  0  0  0  0
    0.0470   -1.7224    0.0000 O   0  0  0  0  0  0  0  0  0  0  0  0
    1.6119   -3.1745    0.0000 C   0  0  0  0  0  0  0  0  0  0  0  0
    2.4324   -3.0882    0.0000 C   0  0  0  0  0  0  0  0  0  0  0  0
    2.9173   -3.7557    0.0000 C   0  0  0  0  0  0  0  0  0  0  0  0
    2.5817   -4.5094    0.0000 C   0  0  0  0  0  0  0  0  0  0  0  0
    1.7613   -4.5956    0.0000 C   0  0  0  0  0  0  0  0  0  0  0  0
    1.2763   -3.9282    0.0000 C   0  0  0  0  0  0  0  0  0  0  0  0
  1  2  1  0  0  0  0
  2  3  2  0  0  0  0
  3  4  1  0  0  0  0
  4  5  2  0  0  0  0
  5  6  1  0  0  0  0
  2  6  1  0  0  0  0
  4  7  1  0  0  0  0
  7  8  2  0  0  0  0
  8  9  1  0  0  0  0
  9 10  2  0  0  0  0
 10 11  1  0  0  0  0
 11 12  2  0  0  0  0
  7 12  1  0  0  0  0
M  END
>  <Catalog ID>
Z939904558

>  <PlateID>
1198308-R-SPFL-10

>  <Well>
B03

>  <MW (desalted)>
160.173

>  <ClogP>
1.592

>  <HBD>
1

>  <TPSA>
52.050

>  <RotBonds>
1

$$$$

            

 11 11  0  0  0  0            999 V2000
    1.4289   -1.6500    0.0000 N   0  0  0  0  0  0  0  0  0  0  0  0
    0.7145   -1.2375    0.0000 C   0  0  0  0  0  0  0  0  0  0  0  0
    0.0000   -1.6500    0.0000 O   0  0  0  0  0  0  0  0  0  0  0  0
    0.7145   -0.4125    0.0000 C   0  0  0  0  0  0  0  0  0  0  0  0
   -0.0000    0.0000    0.0000 C   0  0  0  0  0  0  0  0  0  0  0  0
    0.0000    0.8250    0.0000 C   0  0  0  0  0  0  0  0  0  0  0  0
    0.7145    1.2375    0.0000 C   0  0  0  0  0  0  0  0  0  0  0  0
    0.1842    1.8695    0.0000 F   0  0  0  0  0  0  0  0  0  0  0  0
    1.2448    1.8695    0.0000 F   0  0  0  0  0  0  0  0  0  0  0  0
    1.4289    0.8250    0.0000 C   0  0  0  0  0  0  0  0  0  0  0  0
    1.4289    0.0000    0.0000 C   0  0  0  0  0  0  0  0  0  0  0  0
  1  2  1  0  0  0  0
  2  3  2  0  0  0  0
  2  4  1  0  0  0  0
  4  5  1  0  0  0  0
  5  6  1  0  0  0  0
  6  7  1  0  0  0  0
  7  8  1  0  0  0  0
  7  9  1  0  0  0  0
  7 10  1  0  0  0  0
 10 11  1  0  0  0  0
  4 11  1  0  0  0  0
M  END
>  <Catalog ID>
Z1198316457

>  <PlateID>
1198308-R-SPFL-10

>  <Well>
B04

>  <MW (desalted)>
163.165

>  <ClogP>
0.303

>  <HBD>
1

>  <TPSA>
43.090

>  <RotBonds>
1

$$$$

            

 13 14  0  0  0  0            999 V2000
    0.7145   -0.4125    0.0000 O   0  0  0  0  0  0  0  0  0  0  0  0
    0.7145   -1.2375    0.0000 C   0  0  0  0  0  0  0  0  0  0  0  0
    1.4289   -1.6500    0.0000 C   0  0  0  0  0  0  0  0  0  0  0  0
    1.4289   -2.4750    0.0000 C   0  0  0  0  0  0  0  0  0  0  0  0
    0.7145   -2.8875    0.0000 C   0  0  0  0  0  0  0  0  0  0  0  0
    0.0000   -2.4750    0.0000 N   0  0  0  0  0  0  0  0  0  0  0  0
    0.0000   -1.6500    0.0000 N   0  0  0  0  0  0  0  0  0  0  0  0
    0.7145   -3.7125    0.0000 C   0  0  0  0  0  0  0  0  0  0  0  0
    1.4289   -4.1250    0.0000 C   0  0  0  0  0  0  0  0  0  0  0  0
    1.4289   -4.9500    0.0000 C   0  0  0  0  0  0  0  0  0  0  0  0
    0.7145   -5.3625    0.0000 C   0  0  0  0  0  0  0  0  0  0  0  0
    0.0000   -4.9500    0.0000 C   0  0  0  0  0  0  0  0  0  0  0  0
    0.0000   -4.1250    0.0000 C   0  0  0  0  0  0  0  0  0  0  0  0
  1  2  2  0  0  0  0
  2  3  1  0  0  0  0
  3  4  2  0  0  0  0
  4  5  1  0  0  0  0
  5  6  2  0  0  0  0
  6  7  1  0  0  0  0
  2  7  1  0  0  0  0
  5  8  1  0  0  0  0
  8  9  2  0  0  0  0
  9 10  1  0  0  0  0
 10 11  2  0  0  0  0
 11 12  1  0  0  0  0
 12 13  2  0  0  0  0
  8 13  1  0  0  0  0
M  END
>  <Catalog ID>
Z432063060

>  <PlateID>
1198308-R-SPFL-10

>  <Well>
B05

>  <MW (desalted)>
172.183

>  <ClogP>
0.869

>  <HBD>
1

>  <TPSA>
41.460

>  <RotBonds>
1

$$$$

            

 12 12  0  0  0  0            999 V2000
    0.0000    0.0000    0.0000 Cl  0  0  0  0  0  0  0  0  0  0  0  0
    3.6384   -0.6118    0.0000 N   0  0  0  0  0  0  0  0  0  0  0  0
    3.0064   -1.1421    0.0000 C   0  0  0  0  0  0  0  0  0  0  0  0
    2.3744   -0.6118    0.0000 C   0  0  0  0  0  0  0  0  0  0  0  0
    2.5177    0.2007    0.0000 C   0  0  0  0  0  0  0  0  0  0  0  0
    1.8857    0.7310    0.0000 C   0  0  0  0  0  0  0  0  0  0  0  0
    2.0290    1.5434    0.0000 C   0  0  0  0  0  0  0  0  0  0  0  0
    2.8042    1.8256    0.0000 C   0  0  0  0  0  0  0  0  0  0  0  0
    3.4362    1.2953    0.0000 C   0  0  0  0  0  0  0  0  0  0  0  0
    3.2929    0.4828    0.0000 C   0  0  0  0  0  0  0  0  0  0  0  0
    3.4189   -1.8566    0.0000 C   0  0  0  0  0  0  0  0  0  0  0  0
    2.5939   -1.8566    0.0000 C   0  0  0  0  0  0  0  0  0  0  0  0
  2  3  1  0  0  0  0
  3  4  1  0  0  0  0
  4  5  1  0  0  0  0
  5  6  2  0  0  0  0
  6  7  1  0  0  0  0
  7  8  2  0  0  0  0
  8  9  1  0  0  0  0
  9 10  2  0  0  0  0
  5 10  1  0  0  0  0
  3 11  1  0  0  0  0
 11 12  1  0  0  0  0
  3 12  1  0  0  0  0
M  END
>  <Catalog ID>
Z1723549343

>  <PlateID>
1198308-R-SPFL-10

>  <Well>
B06

>  <MW (desalted)>
147.217

>  <ClogP>
1.777

>  <HBD>
1

>  <TPSA>
26.020

>  <RotBonds>
2

$$$$

            

 16 15  0  0  0  0            999 V2000
    0.0000    0.0000    0.0000 Cl  0  0  0  0  0  0  0  0  0  0  0  0
    2.0036    0.0000    0.0000 Cl  0  0  0  0  0  0  0  0  0  0  0  0
    0.9372   -3.0159    0.0000 C   0  0  0  0  0  0  0  0  0  0  0  0
    0.9372   -3.8409    0.0000 C   0  0  0  0  0  0  0  0  0  0  0  0
    1.6046   -4.3259    0.0000 N   0  0  0  0  0  0  0  0  0  0  0  0
    1.3497   -5.1105    0.0000 O   0  0  0  0  0  0  0  0  0  0  0  0
    0.5247   -5.1105    0.0000 C   0  0  0  0  0  0  0  0  0  0  0  0
    0.0397   -5.7779    0.0000 C   0  0  0  0  0  0  0  0  0  0  0  0
    0.2697   -4.3259    0.0000 C   0  0  0  0  0  0  0  0  0  0  0  0
   -0.5149   -4.0709    0.0000 C   0  0  0  0  0  0  0  0  0  0  0  0
   -0.6864   -3.2639    0.0000 N   0  0  0  0  0  0  0  0  0  0  0  0
   -1.4711   -3.0090    0.0000 C   0  0  0  0  0  0  0  0  0  0  0  0
   -1.6426   -2.2020    0.0000 C   0  0  0  0  0  0  0  0  0  0  0  0
   -1.0295   -1.6500    0.0000 N   0  0  0  0  0  0  0  0  0  0  0  0
   -0.2449   -1.9049    0.0000 C   0  0  0  0  0  0  0  0  0  0  0  0
   -0.0733   -2.7119    0.0000 C   0  0  0  0  0  0  0  0  0  0  0  0
  3  4  1  0  0  0  0
  4  5  2  0  0  0  0
  5  6  1  0  0  0  0
  6  7  1  0  0  0  0
  7  8  1  0  0  0  0
  7  9  2  0  0  0  0
  4  9  1  0  0  0  0
  9 10  1  0  0  0  0
 10 11  1  0  0  0  0
 11 12  1  0  0  0  0
 12 13  1  0  0  0  0
 13 14  1  0  0  0  0
 14 15  1  0  0  0  0
 15 16  1  0  0  0  0
 11 16  1  0  0  0  0
M  END
>  <Catalog ID>
Z370706832

>  <PlateID>
1198308-R-SPFL-10

>  <Well>
B07

>  <MW (desalted)>
195.261

>  <ClogP>
0.292

>  <HBD>
1

>  <TPSA>
41.300

>  <RotBonds>
2

$$$$

            

 12 13  0  0  0  0            999 V2000
    0.0768   -2.3215    0.0000 O   0  0  0  0  0  0  0  0  0  0  0  0
    0.8838   -2.1500    0.0000 C   0  0  0  0  0  0  0  0  0  0  0  0
    1.4358   -2.7631    0.0000 O   0  0  0  0  0  0  0  0  0  0  0  0
    1.1387   -1.3654    0.0000 C   0  0  0  0  0  0  0  0  0  0  0  0
    0.6538   -0.6979    0.0000 C   0  0  0  0  0  0  0  0  0  0  0  0
    1.1387   -0.0305    0.0000 O   0  0  0  0  0  0  0  0  0  0  0  0
    1.9233   -0.2854    0.0000 C   0  0  0  0  0  0  0  0  0  0  0  0
    2.6378    0.1271    0.0000 C   0  0  0  0  0  0  0  0  0  0  0  0
    3.3523   -0.2854    0.0000 C   0  0  0  0  0  0  0  0  0  0  0  0
    3.3523   -1.1104    0.0000 C   0  0  0  0  0  0  0  0  0  0  0  0
    2.6378   -1.5229    0.0000 C   0  0  0  0  0  0  0  0  0  0  0  0
    1.9233   -1.1104    0.0000 C   0  0  0  0  0  0  0  0  0  0  0  0
  1  2  1  0  0  0  0
  2  3  2  0  0  0  0
  2  4  1  0  0  0  0
  4  5  2  0  0  0  0
  5  6  1  0  0  0  0
  6  7  1  0  0  0  0
  7  8  2  0  0  0  0
  8  9  1  0  0  0  0
  9 10  2  0  0  0  0
 10 11  1  0  0  0  0
 11 12  2  0  0  0  0
  4 12  1  0  0  0  0
  7 12  1  0  0  0  0
M  END
>  <Catalog ID>
Z897816312

>  <PlateID>
1198308-R-SPFL-10

>  <Well>
B08

>  <MW (desalted)>
162.142

>  <ClogP>
2.445

>  <HBD>
1

>  <TPSA>
50.440

>  <RotBonds>
1

$$$$

            

 11 11  0  0  0  0            999 V2000
    0.0000    0.0000    0.0000 Cl  0  0  0  0  0  0  0  0  0  0  0  0
    2.5871   -1.3069    0.0000 N   0  0  0  0  0  0  0  0  0  0  0  0
    2.8421   -0.5222    0.0000 C   0  0  0  0  0  0  0  0  0  0  0  0
    2.3571    0.1452    0.0000 C   0  0  0  0  0  0  0  0  0  0  0  0
    2.8421    0.8126    0.0000 O   0  0  0  0  0  0  0  0  0  0  0  0
    3.6267    0.5577    0.0000 C   0  0  0  0  0  0  0  0  0  0  0  0
    4.3412    0.9702    0.0000 C   0  0  0  0  0  0  0  0  0  0  0  0
    5.0556    0.5577    0.0000 C   0  0  0  0  0  0  0  0  0  0  0  0
    5.0556   -0.2673    0.0000 C   0  0  0  0  0  0  0  0  0  0  0  0
    4.3412   -0.6798    0.0000 C   0  0  0  0  0  0  0  0  0  0  0  0
    3.6267   -0.2673    0.0000 C   0  0  0  0  0  0  0  0  0  0  0  0
  2  3  1  0  0  0  0
  3  4  1  0  0  0  0
  4  5  1  0  0  0  0
  5  6  1  0  0  0  0
  6  7  2  0  0  0  0
  7  8  1  0  0  0  0
  8  9  2  0  0  0  0
  9 10  1  0  0  0  0
 10 11  2  0  0  0  0
  3 11  1  0  0  0  0
  6 11  1  0  0  0  0
M  END
>  <Catalog ID>
Z1262246183

>  <PlateID>
1198308-R-SPFL-10

>  <Well>
B09

>  <MW (desalted)>
135.163

>  <ClogP>
0.850

>  <HBD>
1

>  <TPSA>
35.250

>  <RotBonds>
0

$$$$

            

 12 12  0  0  0  0            999 V2000
    0.0000    0.0000    0.0000 Cl  0  0  0  0  0  0  0  0  0  0  0  0
    2.3571    0.7700    0.0000 C   0  0  0  0  0  0  0  0  0  0  0  0
    3.1418    1.0249    0.0000 N   0  0  0  0  0  0  0  0  0  0  0  0
    3.3967    1.8095    0.0000 N   0  0  0  0  0  0  0  0  0  0  0  0
    4.2217    1.8095    0.0000 C   0  0  0  0  0  0  0  0  0  0  0  0
    4.4766    1.0249    0.0000 C   0  0  0  0  0  0  0  0  0  0  0  0
    3.8092    0.5400    0.0000 C   0  0  0  0  0  0  0  0  0  0  0  0
    3.8092   -0.2850    0.0000 C   0  0  0  0  0  0  0  0  0  0  0  0
    4.5237   -0.6975    0.0000 N   0  0  0  0  0  0  0  0  0  0  0  0
    4.5237   -1.5225    0.0000 C   0  0  0  0  0  0  0  0  0  0  0  0
    4.9362   -2.2370    0.0000 C   0  0  0  0  0  0  0  0  0  0  0  0
    4.1112   -2.2370    0.0000 C   0  0  0  0  0  0  0  0  0  0  0  0
  2  3  1  0  0  0  0
  3  4  1  0  0  0  0
  4  5  2  0  0  0  0
  5  6  1  0  0  0  0
  6  7  2  0  0  0  0
  3  7  1  0  0  0  0
  7  8  1  0  0  0  0
  8  9  1  0  0  0  0
  9 10  1  0  0  0  0
 10 11  1  0  0  0  0
 11 12  1  0  0  0  0
 10 12  1  0  0  0  0
M  END
>  <Catalog ID>
Z3098876917

>  <PlateID>
1198308-R-SPFL-10

>  <Well>
B10

>  <MW (desalted)>
151.209

>  <ClogP>
0.209

>  <HBD>
1

>  <TPSA>
29.850

>  <RotBonds>
3

$$$$

            

 11 11  0  0  0  0            999 V2000
   -0.1467    2.3518    0.0000 N   0  0  0  0  0  0  0  0  0  0  0  0
    0.5678    1.9393    0.0000 C   0  0  0  0  0  0  0  0  0  0  0  0
    0.5678    1.1143    0.0000 C   0  0  0  0  0  0  0  0  0  0  0  0
    1.2352    0.6294    0.0000 N   0  0  0  0  0  0  0  0  0  0  0  0
    0.9803   -0.1553    0.0000 C   0  0  0  0  0  0  0  0  0  0  0  0
    0.1553   -0.1553    0.0000 C   0  0  0  0  0  0  0  0  0  0  0  0
   -0.0997    0.6294    0.0000 S   0  0  0  0  0  0  0  0  0  0  0  0
    1.4652   -0.8227    0.0000 C   0  0  0  0  0  0  0  0  0  0  0  0
    1.9501   -1.4901    0.0000 F   0  0  0  0  0  0  0  0  0  0  0  0
    0.7977   -1.3076    0.0000 F   0  0  0  0  0  0  0  0  0  0  0  0
    2.1326   -0.3378    0.0000 F   0  0  0  0  0  0  0  0  0  0  0  0
  1  2  1  0  0  0  0
  2  3  1  0  0  0  0
  3  4  2  0  0  0  0
  4  5  1  0  0  0  0
  5  6  2  0  0  0  0
  6  7  1  0  0  0  0
  3  7  1  0  0  0  0
  5  8  1  0  0  0  0
  8  9  1  0  0  0  0
  8 10  1  0  0  0  0
  8 11  1  0  0  0  0
M  END
>  <Catalog ID>
Z431535354

>  <PlateID>
1198308-R-SPFL-10

>  <Well>
B11

>  <MW (desalted)>
182.167

>  <ClogP>
0.437

>  <HBD>
1

>  <TPSA>
38.910

>  <RotBonds>
2

$$$$

            

 14 15  0  0  0  0            999 V2000
    0.8838   -2.1500    0.0000 C   0  0  0  0  0  0  0  0  0  0  0  0
    1.1387   -1.3654    0.0000 N   0  0  0  0  0  0  0  0  0  0  0  0
    0.6538   -0.6979    0.0000 C   0  0  0  0  0  0  0  0  0  0  0  0
    1.1387   -0.0305    0.0000 C   0  0  0  0  0  0  0  0  0  0  0  0
    0.8838    0.7541    0.0000 C   0  0  0  0  0  0  0  0  0  0  0  0
    0.0768    0.9256    0.0000 C   0  0  0  0  0  0  0  0  0  0  0  0
   -0.1781    1.7103    0.0000 O   0  0  0  0  0  0  0  0  0  0  0  0
   -0.4752    0.3126    0.0000 O   0  0  0  0  0  0  0  0  0  0  0  0
    1.9233   -0.2854    0.0000 C   0  0  0  0  0  0  0  0  0  0  0  0
    2.6378    0.1271    0.0000 C   0  0  0  0  0  0  0  0  0  0  0  0
    3.3523   -0.2854    0.0000 C   0  0  0  0  0  0  0  0  0  0  0  0
    3.3523   -1.1104    0.0000 C   0  0  0  0  0  0  0  0  0  0  0  0
    2.6378   -1.5229    0.0000 C   0  0  0  0  0  0  0  0  0  0  0  0
    1.9233   -1.1104    0.0000 C   0  0  0  0  0  0  0  0  0  0  0  0
  1  2  1  0  0  0  0
  2  3  1  0  0  0  0
  3  4  2  0  0  0  0
  4  5  1  0  0  0  0
  5  6  1  0  0  0  0
  6  7  2  0  0  0  0
  6  8  1  0  0  0  0
  4  9  1  0  0  0  0
  9 10  2  0  0  0  0
 10 11  1  0  0  0  0
 11 12  2  0  0  0  0
 12 13  1  0  0  0  0
 13 14  2  0  0  0  0
  2 14  1  0  0  0  0
  9 14  1  0  0  0  0
M  END
>  <Catalog ID>
Z335290036

>  <PlateID>
1198308-R-SPFL-10

>  <Well>
C02

>  <MW (desalted)>
189.211

>  <ClogP>
1.870

>  <HBD>
1

>  <TPSA>
42.230

>  <RotBonds>
2

$$$$

            

 12 13  0  0  0  0            999 V2000
    0.0000   -0.0000    0.0000 C   0  0  0  0  0  0  0  0  0  0  0  0
    0.7145   -0.4125    0.0000 C   0  0  0  0  0  0  0  0  0  0  0  0
    1.4289    0.0000    0.0000 N   0  0  0  0  0  0  0  0  0  0  0  0
    2.1434   -0.4125    0.0000 C   0  0  0  0  0  0  0  0  0  0  0  0
    2.8579    0.0000    0.0000 C   0  0  0  0  0  0  0  0  0  0  0  0
    3.5724   -0.4125    0.0000 C   0  0  0  0  0  0  0  0  0  0  0  0
    3.5724   -1.2375    0.0000 C   0  0  0  0  0  0  0  0  0  0  0  0
    2.8579   -1.6500    0.0000 N   0  0  0  0  0  0  0  0  0  0  0  0
    2.1434   -1.2375    0.0000 C   0  0  0  0  0  0  0  0  0  0  0  0
    1.4289   -1.6500    0.0000 N   0  0  0  0  0  0  0  0  0  0  0  0
    0.7145   -1.2375    0.0000 C   0  0  0  0  0  0  0  0  0  0  0  0
    0.0000   -1.6500    0.0000 O   0  0  0  0  0  0  0  0  0  0  0  0
  1  2  1  0  0  0  0
  2  3  2  0  0  0  0
  3  4  1  0  0  0  0
  4  5  2  0  0  0  0
  5  6  1  0  0  0  0
  6  7  2  0  0  0  0
  7  8  1  0  0  0  0
  8  9  2  0  0  0  0
  4  9  1  0  0  0  0
  9 10  1  0  0  0  0
 10 11  1  0  0  0  0
  2 11  1  0  0  0  0
 11 12  2  0  0  0  0
M  END
>  <Catalog ID>
Z1095090756

>  <PlateID>
1198308-R-SPFL-10

>  <Well>
C03

>  <MW (desalted)>
161.161

>  <ClogP>
-0.181

>  <HBD>
1

>  <TPSA>
54.350

>  <RotBonds>
0

$$$$

            

 13 13  0  0  0  0            999 V2000
    0.0000    0.0000    0.0000 Cl  0  0  0  0  0  0  0  0  0  0  0  0
    2.3571   -0.0000    0.0000 N   0  0  0  0  0  0  0  0  0  0  0  0
    3.1821   -0.0000    0.0000 C   0  0  0  0  0  0  0  0  0  0  0  0
    3.5946    0.7145    0.0000 C   0  0  0  0  0  0  0  0  0  0  0  0
    4.4196    0.7145    0.0000 C   0  0  0  0  0  0  0  0  0  0  0  0
    4.8321    0.0000    0.0000 C   0  0  0  0  0  0  0  0  0  0  0  0
    5.2446    0.7145    0.0000 C   0  0  0  0  0  0  0  0  0  0  0  0
    6.0696    0.7145    0.0000 C   0  0  0  0  0  0  0  0  0  0  0  0
    6.4821   -0.0000    0.0000 O   0  0  0  0  0  0  0  0  0  0  0  0
    6.0696   -0.7145    0.0000 C   0  0  0  0  0  0  0  0  0  0  0  0
    5.2446   -0.7145    0.0000 C   0  0  0  0  0  0  0  0  0  0  0  0
    4.4196   -0.7145    0.0000 C   0  0  0  0  0  0  0  0  0  0  0  0
    3.5946   -0.7145    0.0000 C   0  0  0  0  0  0  0  0  0  0  0  0
  2  3  1  0  0  0  0
  3  4  1  0  0  0  0
  4  5  1  0  0  0  0
  5  6  1  0  0  0  0
  6  7  1  0  0  0  0
  7  8  1  0  0  0  0
  8  9  1  0  0  0  0
  9 10  1  0  0  0  0
 10 11  1  0  0  0  0
  6 11  1  0  0  0  0
  6 12  1  0  0  0  0
 12 13  1  0  0  0  0
  3 13  1  0  0  0  0
M  END
>  <Catalog ID>
Z1356051293

>  <PlateID>
1198308-R-SPFL-10

>  <Well>
C04

>  <MW (desalted)>
169.264

>  <ClogP>
0.959

>  <HBD>
1

>  <TPSA>
35.250

>  <RotBonds>
0

$$$$

            

 12 13  0  0  0  0            999 V2000
    4.9502    2.4825    0.0000 O   0  0  0  0  0  0  0  0  0  0  0  0
    4.4358    1.8374    0.0000 C   0  0  0  0  0  0  0  0  0  0  0  0
    4.7938    1.0941    0.0000 C   0  0  0  0  0  0  0  0  0  0  0  0
    4.4358    0.3508    0.0000 C   0  0  0  0  0  0  0  0  0  0  0  0
    3.6315    0.1673    0.0000 C   0  0  0  0  0  0  0  0  0  0  0  0
    2.9865    0.6816    0.0000 C   0  0  0  0  0  0  0  0  0  0  0  0
    2.2720    0.2691    0.0000 C   0  0  0  0  0  0  0  0  0  0  0  0
    1.5575    0.6816    0.0000 C   0  0  0  0  0  0  0  0  0  0  0  0
    1.5575    1.5066    0.0000 C   0  0  0  0  0  0  0  0  0  0  0  0
    2.2720    1.9191    0.0000 C   0  0  0  0  0  0  0  0  0  0  0  0
    2.9865    1.5066    0.0000 C   0  0  0  0  0  0  0  0  0  0  0  0
    3.6315    2.0210    0.0000 N   0  0  0  0  0  0  0  0  0  0  0  0
  1  2  2  0  0  0  0
  2  3  1  0  0  0  0
  3  4  1  0  0  0  0
  4  5  1  0  0  0  0
  5  6  1  0  0  0  0
  6  7  2  0  0  0  0
  7  8  1  0  0  0  0
  8  9  2  0  0  0  0
  9 10  1  0  0  0  0
 10 11  2  0  0  0  0
  6 11  1  0  0  0  0
 11 12  1  0  0  0  0
  2 12  1  0  0  0  0
M  END
>  <Catalog ID>
Z362764922

>  <PlateID>
1198308-R-SPFL-10

>  <Well>
C05

>  <MW (desalted)>
161.200

>  <ClogP>
1.705

>  <HBD>
1

>  <TPSA>
29.100

>  <RotBonds>
0

$$$$

            

 12 13  0  0  0  0            999 V2000
    0.8838   -2.1500    0.0000 C   0  0  0  0  0  0  0  0  0  0  0  0
    1.1387   -1.3654    0.0000 N   0  0  0  0  0  0  0  0  0  0  0  0
    0.6538   -0.6979    0.0000 C   0  0  0  0  0  0  0  0  0  0  0  0
   -0.1712   -0.6979    0.0000 C   0  0  0  0  0  0  0  0  0  0  0  0
   -0.5837   -1.4124    0.0000 O   0  0  0  0  0  0  0  0  0  0  0  0
    1.1387   -0.0305    0.0000 N   0  0  0  0  0  0  0  0  0  0  0  0
    1.9233   -0.2854    0.0000 C   0  0  0  0  0  0  0  0  0  0  0  0
    2.6378    0.1271    0.0000 C   0  0  0  0  0  0  0  0  0  0  0  0
    3.3523   -0.2854    0.0000 C   0  0  0  0  0  0  0  0  0  0  0  0
    3.3523   -1.1104    0.0000 C   0  0  0  0  0  0  0  0  0  0  0  0
    2.6378   -1.5229    0.0000 C   0  0  0  0  0  0  0  0  0  0  0  0
    1.9233   -1.1104    0.0000 C   0  0  0  0  0  0  0  0  0  0  0  0
  1  2  1  0  0  0  0
  2  3  1  0  0  0  0
  3  4  1  0  0  0  0
  4  5  1  0  0  0  0
  3  6  2  0  0  0  0
  6  7  1  0  0  0  0
  7  8  2  0  0  0  0
  8  9  1  0  0  0  0
  9 10  2  0  0  0  0
 10 11  1  0  0  0  0
 11 12  2  0  0  0  0
  2 12  1  0  0  0  0
  7 12  1  0  0  0  0
M  END
>  <Catalog ID>
Z57299966

>  <PlateID>
1198308-R-SPFL-10

>  <Well>
C06

>  <MW (desalted)>
162.189

>  <ClogP>
0.543

>  <HBD>
1

>  <TPSA>
38.050

>  <RotBonds>
1

$$$$

            

 11 12  0  0  0  0            999 V2000
    0.3020    1.1270    0.0000 C   0  0  0  0  0  0  0  0  0  0  0  0
    1.1270    1.1270    0.0000 C   0  0  0  0  0  0  0  0  0  0  0  0
    1.5395    0.4125    0.0000 C   0  0  0  0  0  0  0  0  0  0  0  0
    1.1270   -0.3020    0.0000 C   0  0  0  0  0  0  0  0  0  0  0  0
    0.3020   -0.3020    0.0000 C   0  0  0  0  0  0  0  0  0  0  0  0
   -0.1105    0.4125    0.0000 N   0  0  0  0  0  0  0  0  0  0  0  0
    1.9520    1.1270    0.0000 C   0  0  0  0  0  0  0  0  0  0  0  0
    2.7770    1.1270    0.0000 C   0  0  0  0  0  0  0  0  0  0  0  0
    3.1895    0.4125    0.0000 O   0  0  0  0  0  0  0  0  0  0  0  0
    2.7770   -0.3020    0.0000 C   0  0  0  0  0  0  0  0  0  0  0  0
    1.9520   -0.3020    0.0000 C   0  0  0  0  0  0  0  0  0  0  0  0
  1  2  1  0  0  0  0
  2  3  1  0  0  0  0
  3  4  1  0  0  0  0
  4  5  1  0  0  0  0
  5  6  1  0  0  0  0
  1  6  1  0  0  0  0
  3  7  1  0  0  0  0
  7  8  1  0  0  0  0
  8  9  1  0  0  0  0
  9 10  1  0  0  0  0
 10 11  1  0  0  0  0
  3 11  1  0  0  0  0
M  END
>  <Catalog ID>
Z415735006

>  <PlateID>
1198308-R-SPFL-10

>  <Well>
C07

>  <MW (desalted)>
155.237

>  <ClogP>
0.527

>  <HBD>
1

>  <TPSA>
21.260

>  <RotBonds>
0

$$$$

            

 13 13  0  0  0  0            999 V2000
    0.7145    2.0625    0.0000 N   0  0  0  0  0  0  0  0  0  0  0  0
    0.7145    1.2375    0.0000 C   0  0  0  0  0  0  0  0  0  0  0  0
    1.4289    0.8250    0.0000 C   0  0  0  0  0  0  0  0  0  0  0  0
    1.4289   -0.0000    0.0000 C   0  0  0  0  0  0  0  0  0  0  0  0
    0.7145   -0.4125    0.0000 C   0  0  0  0  0  0  0  0  0  0  0  0
    0.7145   -1.2375    0.0000 O   0  0  0  0  0  0  0  0  0  0  0  0
   -0.0000   -1.6500    0.0000 C   0  0  0  0  0  0  0  0  0  0  0  0
   -0.0000   -2.4750    0.0000 C   0  0  0  0  0  0  0  0  0  0  0  0
   -0.0000   -3.3000    0.0000 F   0  0  0  0  0  0  0  0  0  0  0  0
   -0.8250   -2.4750    0.0000 F   0  0  0  0  0  0  0  0  0  0  0  0
    0.8250   -2.4750    0.0000 F   0  0  0  0  0  0  0  0  0  0  0  0
    0.0000    0.0000    0.0000 N   0  0  0  0  0  0  0  0  0  0  0  0
    0.0000    0.8250    0.0000 C   0  0  0  0  0  0  0  0  0  0  0  0
  1  2  1  0  0  0  0
  2  3  2  0  0  0  0
  3  4  1  0  0  0  0
  4  5  2  0  0  0  0
  5  6  1  0  0  0  0
  6  7  1  0  0  0  0
  7  8  1  0  0  0  0
  8  9  1  0  0  0  0
  8 10  1  0  0  0  0
  8 11  1  0  0  0  0
  5 12  1  0  0  0  0
 12 13  2  0  0  0  0
  2 13  1  0  0  0  0
M  END
>  <Catalog ID>
Z240084298

>  <PlateID>
1198308-R-SPFL-10

>  <Well>
C08

>  <MW (desalted)>
192.138

>  <ClogP>
1.955

>  <HBD>
1

>  <TPSA>
48.140

>  <RotBonds>
3

$$$$

            

 10 10  0  0  0  0            999 V2000
    0.5678    1.9393    0.0000 C   0  0  0  0  0  0  0  0  0  0  0  0
    0.5678    1.1143    0.0000 C   0  0  0  0  0  0  0  0  0  0  0  0
    1.2352    0.6294    0.0000 N   0  0  0  0  0  0  0  0  0  0  0  0
    0.9803   -0.1553    0.0000 C   0  0  0  0  0  0  0  0  0  0  0  0
    1.4652   -0.8227    0.0000 C   0  0  0  0  0  0  0  0  0  0  0  0
    2.2857   -0.7365    0.0000 O   0  0  0  0  0  0  0  0  0  0  0  0
    1.1296   -1.5764    0.0000 O   0  0  0  0  0  0  0  0  0  0  0  0
    0.1553   -0.1553    0.0000 C   0  0  0  0  0  0  0  0  0  0  0  0
   -0.3297   -0.8227    0.0000 C   0  0  0  0  0  0  0  0  0  0  0  0
   -0.0997    0.6294    0.0000 S   0  0  0  0  0  0  0  0  0  0  0  0
  1  2  1  0  0  0  0
  2  3  2  0  0  0  0
  3  4  1  0  0  0  0
  4  5  1  0  0  0  0
  5  6  2  0  0  0  0
  5  7  1  0  0  0  0
  4  8  2  0  0  0  0
  8  9  1  0  0  0  0
  8 10  1  0  0  0  0
  2 10  1  0  0  0  0
M  END
>  <Catalog ID>
Z1198236098

>  <PlateID>
1198308-R-SPFL-10

>  <Well>
C09

>  <MW (desalted)>
157.190

>  <ClogP>
1.529

>  <HBD>
1

>  <TPSA>
50.190

>  <RotBonds>
1

$$$$

            

 10 11  0  0  0  0            999 V2000
    1.5342   -0.7349    0.0000 C   0  0  0  0  0  0  0  0  0  0  0  0
    2.2487   -1.1474    0.0000 N   0  0  0  0  0  0  0  0  0  0  0  0
    2.2487   -1.9724    0.0000 C   0  0  0  0  0  0  0  0  0  0  0  0
    2.6612   -2.6869    0.0000 C   0  0  0  0  0  0  0  0  0  0  0  0
    1.8362   -2.6869    0.0000 C   0  0  0  0  0  0  0  0  0  0  0  0
    1.5342    0.0901    0.0000 C   0  0  0  0  0  0  0  0  0  0  0  0
    0.8668    0.5750    0.0000 C   0  0  0  0  0  0  0  0  0  0  0  0
    1.1217    1.3596    0.0000 C   0  0  0  0  0  0  0  0  0  0  0  0
    1.9467    1.3596    0.0000 S   0  0  0  0  0  0  0  0  0  0  0  0
    2.2016    0.5750    0.0000 C   0  0  0  0  0  0  0  0  0  0  0  0
  1  2  1  0  0  0  0
  2  3  1  0  0  0  0
  3  4  1  0  0  0  0
  4  5  1  0  0  0  0
  3  5  1  0  0  0  0
  1  6  1  0  0  0  0
  6  7  1  0  0  0  0
  7  8  2  0  0  0  0
  8  9  1  0  0  0  0
  9 10  1  0  0  0  0
  6 10  2  0  0  0  0
M  END
>  <Catalog ID>
Z90517870

>  <PlateID>
1198308-R-SPFL-10

>  <Well>
C10

>  <MW (desalted)>
153.245

>  <ClogP>
1.740

>  <HBD>
1

>  <TPSA>
12.030

>  <RotBonds>
3

$$$$

            

 14 15  0  0  0  0            999 V2000
    2.1434   -0.4125    0.0000 O   0  0  0  0  0  0  0  0  0  0  0  0
    2.1434   -1.2375    0.0000 C   0  0  0  0  0  0  0  0  0  0  0  0
    2.8579   -1.6500    0.0000 N   0  0  0  0  0  0  0  0  0  0  0  0
    2.8579   -2.4750    0.0000 C   0  0  0  0  0  0  0  0  0  0  0  0
    2.1434   -2.8875    0.0000 C   0  0  0  0  0  0  0  0  0  0  0  0
    1.4289   -2.4750    0.0000 S   0  0  0  0  0  0  0  0  0  0  0  0
    1.4289   -1.6500    0.0000 C   0  0  0  0  0  0  0  0  0  0  0  0
    0.7145   -1.2375    0.0000 C   0  0  0  0  0  0  0  0  0  0  0  0
    0.7145   -0.4125    0.0000 C   0  0  0  0  0  0  0  0  0  0  0  0
    0.0000    0.0000    0.0000 C   0  0  0  0  0  0  0  0  0  0  0  0
    0.0000    0.8250    0.0000 C   0  0  0  0  0  0  0  0  0  0  0  0
    0.7145    1.2375    0.0000 C   0  0  0  0  0  0  0  0  0  0  0  0
    1.4289    0.8250    0.0000 C   0  0  0  0  0  0  0  0  0  0  0  0
    1.4289    0.0000    0.0000 C   0  0  0  0  0  0  0  0  0  0  0  0
  1  2  2  0  0  0  0
  2  3  1  0  0  0  0
  3  4  1  0  0  0  0
  4  5  1  0  0  0  0
  5  6  1  0  0  0  0
  6  7  1  0  0  0  0
  2  7  1  0  0  0  0
  7  8  1  0  0  0  0
  8  9  1  0  0  0  0
  9 10  2  0  0  0  0
 10 11  1  0  0  0  0
 11 12  2  0  0  0  0
 12 13  1  0  0  0  0
 13 14  2  0  0  0  0
  9 14  1  0  0  0  0
M  END
>  <Catalog ID>
Z1258578706

>  <PlateID>
1198308-R-SPFL-10

>  <Well>
C11

>  <MW (desalted)>
207.292

>  <ClogP>
1.706

>  <HBD>
1

>  <TPSA>
29.100

>  <RotBonds>
2

$$$$

            

 12 12  0  0  0  0            999 V2000
    1.2822    2.3518    0.0000 O   0  0  0  0  0  0  0  0  0  0  0  0
    0.5678    1.9393    0.0000 C   0  0  0  0  0  0  0  0  0  0  0  0
   -0.1467    2.3518    0.0000 O   0  0  0  0  0  0  0  0  0  0  0  0
    0.5678    1.1143    0.0000 C   0  0  0  0  0  0  0  0  0  0  0  0
    1.2352    0.6294    0.0000 C   0  0  0  0  0  0  0  0  0  0  0  0
    0.9803   -0.1553    0.0000 S   0  0  0  0  0  0  0  0  0  0  0  0
    0.1553   -0.1553    0.0000 C   0  0  0  0  0  0  0  0  0  0  0  0
   -0.0997    0.6294    0.0000 N   0  0  0  0  0  0  0  0  0  0  0  0
   -0.3297   -0.8227    0.0000 C   0  0  0  0  0  0  0  0  0  0  0  0
   -0.8146   -1.4901    0.0000 F   0  0  0  0  0  0  0  0  0  0  0  0
   -0.9971   -0.3378    0.0000 F   0  0  0  0  0  0  0  0  0  0  0  0
    0.3378   -1.3076    0.0000 F   0  0  0  0  0  0  0  0  0  0  0  0
  1  2  1  0  0  0  0
  2  3  2  0  0  0  0
  2  4  1  0  0  0  0
  4  5  2  0  0  0  0
  5  6  1  0  0  0  0
  6  7  1  0  0  0  0
  7  8  2  0  0  0  0
  4  8  1  0  0  0  0
  7  9  1  0  0  0  0
  9 10  1  0  0  0  0
  9 11  1  0  0  0  0
  9 12  1  0  0  0  0
M  END
>  <Catalog ID>
Z1198187057

>  <PlateID>
1198308-R-SPFL-10

>  <Well>
D02

>  <MW (desalted)>
197.135

>  <ClogP>
1.725

>  <HBD>
1

>  <TPSA>
50.190

>  <RotBonds>
2

$$$$

            

 13 14  0  0  0  0            999 V2000
    2.0367   -0.4741    0.0000 N   0  0  0  0  0  0  0  0  0  0  0  0
    2.0367   -1.2991    0.0000 C   0  0  0  0  0  0  0  0  0  0  0  0
    2.7041   -1.7840    0.0000 C   0  0  0  0  0  0  0  0  0  0  0  0
    2.4492   -2.5687    0.0000 C   0  0  0  0  0  0  0  0  0  0  0  0
    1.6242   -2.5687    0.0000 N   0  0  0  0  0  0  0  0  0  0  0  0
    1.3693   -1.7840    0.0000 N   0  0  0  0  0  0  0  0  0  0  0  0
    0.5846   -1.5291    0.0000 C   0  0  0  0  0  0  0  0  0  0  0  0
    0.4131   -0.7221    0.0000 C   0  0  0  0  0  0  0  0  0  0  0  0
   -0.3715   -0.4672    0.0000 C   0  0  0  0  0  0  0  0  0  0  0  0
   -0.5430    0.3398    0.0000 C   0  0  0  0  0  0  0  0  0  0  0  0
    0.0701    0.8918    0.0000 C   0  0  0  0  0  0  0  0  0  0  0  0
    0.8547    0.6369    0.0000 C   0  0  0  0  0  0  0  0  0  0  0  0
    1.0262   -0.1701    0.0000 C   0  0  0  0  0  0  0  0  0  0  0  0
  1  2  1  0  0  0  0
  2  3  2  0  0  0  0
  3  4  1  0  0  0  0
  4  5  2  0  0  0  0
  5  6  1  0  0  0  0
  2  6  1  0  0  0  0
  6  7  1  0  0  0  0
  7  8  1  0  0  0  0
  8  9  1  0  0  0  0
  9 10  1  0  0  0  0
 10 11  1  0  0  0  0
 11 12  1  0  0  0  0
 12 13  1  0  0  0  0
  8 13  1  0  0  0  0
M  END
>  <Catalog ID>
Z89283339

>  <PlateID>
1198308-R-SPFL-10

>  <Well>
D03

>  <MW (desalted)>
179.262

>  <ClogP>
2.122

>  <HBD>
1

>  <TPSA>
43.840

>  <RotBonds>
2

$$$$

            

 14 14  0  0  0  0            999 V2000
    0.0000    0.0000    0.0000 Cl  0  0  0  0  0  0  0  0  0  0  0  0
    4.7436    0.9519    0.0000 N   0  0  0  0  0  0  0  0  0  0  0  0
    4.7436    0.1269    0.0000 C   0  0  0  0  0  0  0  0  0  0  0  0
    5.4581   -0.2856    0.0000 C   0  0  0  0  0  0  0  0  0  0  0  0
    5.4581   -1.1106    0.0000 N   0  0  0  0  0  0  0  0  0  0  0  0
    4.7436   -1.5231    0.0000 C   0  0  0  0  0  0  0  0  0  0  0  0
    4.0291   -1.1106    0.0000 C   0  0  0  0  0  0  0  0  0  0  0  0
    4.0291   -0.2856    0.0000 C   0  0  0  0  0  0  0  0  0  0  0  0
    3.3147    0.1269    0.0000 C   0  0  0  0  0  0  0  0  0  0  0  0
    2.6002   -0.2856    0.0000 C   0  0  0  0  0  0  0  0  0  0  0  0
    1.8857    0.1269    0.0000 C   0  0  0  0  0  0  0  0  0  0  0  0
    1.8857    0.9519    0.0000 C   0  0  0  0  0  0  0  0  0  0  0  0
    2.6002    1.3644    0.0000 C   0  0  0  0  0  0  0  0  0  0  0  0
    3.3147    0.9519    0.0000 C   0  0  0  0  0  0  0  0  0  0  0  0
  2  3  1  0  0  0  0
  3  4  2  0  0  0  0
  4  5  1  0  0  0  0
  5  6  2  0  0  0  0
  6  7  1  0  0  0  0
  7  8  2  0  0  0  0
  3  8  1  0  0  0  0
  8  9  1  0  0  0  0
  9 10  2  0  0  0  0
 10 11  1  0  0  0  0
 11 12  2  0  0  0  0
 12 13  1  0  0  0  0
 13 14  2  0  0  0  0
  9 14  1  0  0  0  0
M  END
>  <Catalog ID>
Z1863617761

>  <PlateID>
1198308-R-SPFL-10

>  <Well>
D04

>  <MW (desalted)>
170.211

>  <ClogP>
2.206

>  <HBD>
1

>  <TPSA>
38.910

>  <RotBonds>
1

$$$$

            

 11 10  0  0  0  0            999 V2000
    0.0000    0.0000    0.0000 Cl  0  0  0  0  0  0  0  0  0  0  0  0
    3.4858    1.9349    0.0000 C   0  0  0  0  0  0  0  0  0  0  0  0
    3.4858    1.1099    0.0000 N   0  0  0  0  0  0  0  0  0  0  0  0
    4.1532    0.6250    0.0000 C   0  0  0  0  0  0  0  0  0  0  0  0
    3.8983   -0.1596    0.0000 C   0  0  0  0  0  0  0  0  0  0  0  0
    4.3832   -0.8271    0.0000 N   0  0  0  0  0  0  0  0  0  0  0  0
    3.0733   -0.1596    0.0000 C   0  0  0  0  0  0  0  0  0  0  0  0
    2.8183    0.6250    0.0000 N   0  0  0  0  0  0  0  0  0  0  0  0
    2.5883   -0.8271    0.0000 C   0  0  0  0  0  0  0  0  0  0  0  0
    2.9239   -1.5807    0.0000 F   0  0  0  0  0  0  0  0  0  0  0  0
    1.7679   -0.7408    0.0000 F   0  0  0  0  0  0  0  0  0  0  0  0
  2  3  1  0  0  0  0
  3  4  1  0  0  0  0
  4  5  2  0  0  0  0
  5  6  1  0  0  0  0
  5  7  1  0  0  0  0
  7  8  2  0  0  0  0
  3  8  1  0  0  0  0
  7  9  1  0  0  0  0
  9 10  1  0  0  0  0
  9 11  1  0  0  0  0
M  END
>  <Catalog ID>
Z1954803027

>  <PlateID>
1198308-R-SPFL-10

>  <Well>
D05

>  <MW (desalted)>
147.126

>  <ClogP>
-0.383

>  <HBD>
1

>  <TPSA>
43.840

>  <RotBonds>
1

$$$$

            

 13 14  0  0  0  0            999 V2000
    0.0000    0.0000    0.0000 Cl  0  0  0  0  0  0  0  0  0  0  0  0
    2.3571   -0.4125    0.0000 C   0  0  0  0  0  0  0  0  0  0  0  0
    2.3571    0.4125    0.0000 C   0  0  0  0  0  0  0  0  0  0  0  0
    3.0716    0.0000    0.0000 C   0  0  0  0  0  0  0  0  0  0  0  0
    3.8966    0.0000    0.0000 C   0  0  0  0  0  0  0  0  0  0  0  0
    4.3815    0.6674    0.0000 C   0  0  0  0  0  0  0  0  0  0  0  0
    5.1662    0.4125    0.0000 C   0  0  0  0  0  0  0  0  0  0  0  0
    5.8806    0.8250    0.0000 C   0  0  0  0  0  0  0  0  0  0  0  0
    6.5951    0.4125    0.0000 N   0  0  0  0  0  0  0  0  0  0  0  0
    6.5951   -0.4125    0.0000 C   0  0  0  0  0  0  0  0  0  0  0  0
    5.8806   -0.8250    0.0000 C   0  0  0  0  0  0  0  0  0  0  0  0
    5.1662   -0.4125    0.0000 N   0  0  0  0  0  0  0  0  0  0  0  0
    4.3815   -0.6674    0.0000 N   0  0  0  0  0  0  0  0  0  0  0  0
  2  3  1  0  0  0  0
  3  4  1  0  0  0  0
  2  4  1  0  0  0  0
  4  5  1  0  0  0  0
  5  6  1  0  0  0  0
  6  7  2  0  0  0  0
  7  8  1  0  0  0  0
  8  9  1  0  0  0  0
  9 10  1  0  0  0  0
 10 11  1  0  0  0  0
 11 12  1  0  0  0  0
  7 12  1  0  0  0  0
 12 13  1  0  0  0  0
  5 13  2  0  0  0  0
M  END
>  <Catalog ID>
Z2310707868

>  <PlateID>
1198308-R-SPFL-10

>  <Well>
D06

>  <MW (desalted)>
163.220

>  <ClogP>
0.293

>  <HBD>
1

>  <TPSA>
29.850

>  <RotBonds>
1

$$$$

            

 13 14  0  0  0  0            999 V2000
    0.8838   -2.1500    0.0000 C   0  0  0  0  0  0  0  0  0  0  0  0
    1.1387   -1.3654    0.0000 N   0  0  0  0  0  0  0  0  0  0  0  0
    0.6538   -0.6979    0.0000 C   0  0  0  0  0  0  0  0  0  0  0  0
    1.1387   -0.0305    0.0000 C   0  0  0  0  0  0  0  0  0  0  0  0
    1.9233   -0.2854    0.0000 C   0  0  0  0  0  0  0  0  0  0  0  0
    2.6378    0.1271    0.0000 C   0  0  0  0  0  0  0  0  0  0  0  0
    3.3523   -0.2854    0.0000 C   0  0  0  0  0  0  0  0  0  0  0  0
    3.3523   -1.1104    0.0000 C   0  0  0  0  0  0  0  0  0  0  0  0
    2.6378   -1.5229    0.0000 C   0  0  0  0  0  0  0  0  0  0  0  0
    1.9233   -1.1104    0.0000 C   0  0  0  0  0  0  0  0  0  0  0  0
   -0.1712   -0.6979    0.0000 C   0  0  0  0  0  0  0  0  0  0  0  0
   -0.5837   -1.4124    0.0000 O   0  0  0  0  0  0  0  0  0  0  0  0
   -0.5837    0.0165    0.0000 O   0  0  0  0  0  0  0  0  0  0  0  0
  1  2  1  0  0  0  0
  2  3  1  0  0  0  0
  3  4  2  0  0  0  0
  4  5  1  0  0  0  0
  5  6  2  0  0  0  0
  6  7  1  0  0  0  0
  7  8  2  0  0  0  0
  8  9  1  0  0  0  0
  9 10  2  0  0  0  0
  2 10  1  0  0  0  0
  5 10  1  0  0  0  0
  3 11  1  0  0  0  0
 11 12  2  0  0  0  0
 11 13  1  0  0  0  0
M  END
>  <Catalog ID>
Z57204959

>  <PlateID>
1198308-R-SPFL-10

>  <Well>
D07

>  <MW (desalted)>
175.184

>  <ClogP>
2.510

>  <HBD>
1

>  <TPSA>
42.230

>  <RotBonds>
1

$$$$

            

 12 13  0  0  0  0            999 V2000
   -0.5837   -1.4124    0.0000 O   0  0  0  0  0  0  0  0  0  0  0  0
   -0.1712   -0.6979    0.0000 C   0  0  0  0  0  0  0  0  0  0  0  0
   -0.5837    0.0165    0.0000 O   0  0  0  0  0  0  0  0  0  0  0  0
    0.6538   -0.6979    0.0000 C   0  0  0  0  0  0  0  0  0  0  0  0
    1.1387   -0.0305    0.0000 C   0  0  0  0  0  0  0  0  0  0  0  0
    1.9233   -0.2854    0.0000 C   0  0  0  0  0  0  0  0  0  0  0  0
    2.6378    0.1271    0.0000 C   0  0  0  0  0  0  0  0  0  0  0  0
    3.3523   -0.2854    0.0000 C   0  0  0  0  0  0  0  0  0  0  0  0
    3.3523   -1.1104    0.0000 C   0  0  0  0  0  0  0  0  0  0  0  0
    2.6378   -1.5229    0.0000 N   0  0  0  0  0  0  0  0  0  0  0  0
    1.9233   -1.1104    0.0000 C   0  0  0  0  0  0  0  0  0  0  0  0
    1.1387   -1.3654    0.0000 S   0  0  0  0  0  0  0  0  0  0  0  0
  1  2  1  0  0  0  0
  2  3  2  0  0  0  0
  2  4  1  0  0  0  0
  4  5  2  0  0  0  0
  5  6  1  0  0  0  0
  6  7  2  0  0  0  0
  7  8  1  0  0  0  0
  8  9  2  0  0  0  0
  9 10  1  0  0  0  0
 10 11  2  0  0  0  0
  6 11  1  0  0  0  0
 11 12  1  0  0  0  0
  4 12  1  0  0  0  0
M  END
>  <Catalog ID>
Z1201624090

>  <PlateID>
1198308-R-SPFL-10

>  <Well>
D08

>  <MW (desalted)>
179.196

>  <ClogP>
1.873

>  <HBD>
1

>  <TPSA>
50.190

>  <RotBonds>
1

$$$$

            

 12 12  0  0  0  0            999 V2000
    0.0000    0.0000    0.0000 Cl  0  0  0  0  0  0  0  0  0  0  0  0
    2.3571    1.4815    0.0000 C   0  0  0  0  0  0  0  0  0  0  0  0
    3.0716    1.8940    0.0000 C   0  0  0  0  0  0  0  0  0  0  0  0
    3.7861    1.4815    0.0000 N   0  0  0  0  0  0  0  0  0  0  0  0
    3.7861    0.6565    0.0000 C   0  0  0  0  0  0  0  0  0  0  0  0
    3.0716    0.2440    0.0000 C   0  0  0  0  0  0  0  0  0  0  0  0
    2.3571    0.6565    0.0000 C   0  0  0  0  0  0  0  0  0  0  0  0
    3.0716   -0.5810    0.0000 N   0  0  0  0  0  0  0  0  0  0  0  0
    3.7391   -1.0659    0.0000 C   0  0  0  0  0  0  0  0  0  0  0  0
    3.4841   -1.8506    0.0000 C   0  0  0  0  0  0  0  0  0  0  0  0
    2.6591   -1.8506    0.0000 C   0  0  0  0  0  0  0  0  0  0  0  0
    2.4042   -1.0659    0.0000 N   0  0  0  0  0  0  0  0  0  0  0  0
  2  3  1  0  0  0  0
  3  4  1  0  0  0  0
  4  5  1  0  0  0  0
  5  6  1  0  0  0  0
  6  7  1  0  0  0  0
  2  7  1  0  0  0  0
  6  8  1  0  0  0  0
  8  9  1  0  0  0  0
  9 10  2  0  0  0  0
 10 11  1  0  0  0  0
 11 12  2  0  0  0  0
  8 12  1  0  0  0  0
M  END
>  <Catalog ID>
Z2310707547

>  <PlateID>
1198308-R-SPFL-10

>  <Well>
D09

>  <MW (desalted)>
151.209

>  <ClogP>
0.388

>  <HBD>
1

>  <TPSA>
29.850

>  <RotBonds>
1

$$$$

            

 12 12  0  0  0  0            999 V2000
    1.4289    2.4750    0.0000 C   0  0  0  0  0  0  0  0  0  0  0  0
    0.7145    2.0625    0.0000 O   0  0  0  0  0  0  0  0  0  0  0  0
    0.7145    1.2375    0.0000 C   0  0  0  0  0  0  0  0  0  0  0  0
    1.4289    0.8250    0.0000 C   0  0  0  0  0  0  0  0  0  0  0  0
    1.4289   -0.0000    0.0000 C   0  0  0  0  0  0  0  0  0  0  0  0
    0.7145   -0.4125    0.0000 C   0  0  0  0  0  0  0  0  0  0  0  0
    0.0000    0.0000    0.0000 C   0  0  0  0  0  0  0  0  0  0  0  0
   -0.7145   -0.4125    0.0000 C   0  0  0  0  0  0  0  0  0  0  0  0
   -1.4289   -0.8250    0.0000 C   0  0  0  0  0  0  0  0  0  0  0  0
   -2.1434   -1.2375    0.0000 C   0  0  0  0  0  0  0  0  0  0  0  0
   -2.1434   -2.0625    0.0000 O   0  0  0  0  0  0  0  0  0  0  0  0
    0.0000    0.8250    0.0000 C   0  0  0  0  0  0  0  0  0  0  0  0
  1  2  1  0  0  0  0
  2  3  1  0  0  0  0
  3  4  2  0  0  0  0
  4  5  1  0  0  0  0
  5  6  2  0  0  0  0
  6  7  1  0  0  0  0
  7  8  1  0  0  0  0
  8  9  3  0  0  0  0
  9 10  1  0  0  0  0
 10 11  1  0  0  0  0
  7 12  2  0  0  0  0
  3 12  1  0  0  0  0
M  END
>  <Catalog ID>
Z539904058

>  <PlateID>
1198308-R-SPFL-10

>  <Well>
D10

>  <MW (desalted)>
162.185

>  <ClogP>
0.873

>  <HBD>
1

>  <TPSA>
29.460

>  <RotBonds>
3

$$$$

            

 13 12  0  0  0  0            999 V2000
    0.0000    0.0000    0.0000 Cl  0  0  0  0  0  0  0  0  0  0  0  0
    2.0036    0.0000    0.0000 Cl  0  0  0  0  0  0  0  0  0  0  0  0
   -2.2204   -3.1895    0.0000 N   0  0  0  0  0  0  0  0  0  0  0  0
   -1.8079   -2.4750    0.0000 C   0  0  0  0  0  0  0  0  0  0  0  0
   -0.9829   -2.4750    0.0000 C   0  0  0  0  0  0  0  0  0  0  0  0
   -0.4979   -1.8076    0.0000 N   0  0  0  0  0  0  0  0  0  0  0  0
    0.2867   -2.0625    0.0000 C   0  0  0  0  0  0  0  0  0  0  0  0
    1.0012   -1.6500    0.0000 C   0  0  0  0  0  0  0  0  0  0  0  0
    1.7156   -2.0625    0.0000 C   0  0  0  0  0  0  0  0  0  0  0  0
    1.7156   -2.8875    0.0000 C   0  0  0  0  0  0  0  0  0  0  0  0
    1.0012   -3.3000    0.0000 C   0  0  0  0  0  0  0  0  0  0  0  0
    0.2867   -2.8875    0.0000 C   0  0  0  0  0  0  0  0  0  0  0  0
   -0.4979   -3.1424    0.0000 S   0  0  0  0  0  0  0  0  0  0  0  0
  3  4  1  0  0  0  0
  4  5  1  0  0  0  0
  5  6  2  0  0  0  0
  6  7  1  0  0  0  0
  7  8  1  0  0  0  0
  8  9  1  0  0  0  0
  9 10  1  0  0  0  0
 10 11  1  0  0  0  0
 11 12  1  0  0  0  0
  7 12  2  0  0  0  0
 12 13  1  0  0  0  0
  5 13  1  0  0  0  0
M  END
>  <Catalog ID>
Z234896507

>  <PlateID>
1198308-R-SPFL-10

>  <Well>
D11

>  <MW (desalted)>
168.259

>  <ClogP>
1.010

>  <HBD>
1

>  <TPSA>
38.910

>  <RotBonds>
1

$$$$

            

 17 17  0  0  0  0            999 V2000
    0.0000    0.0000    0.0000 Cl  0  0  0  0  0  0  0  0  0  0  0  0
    1.8857    2.6813    0.0000 O   0  0  0  0  0  0  0  0  0  0  0  0
    2.6002    2.2688    0.0000 C   0  0  0  0  0  0  0  0  0  0  0  0
    3.3147    2.6813    0.0000 O   0  0  0  0  0  0  0  0  0  0  0  0
    2.6002    1.4438    0.0000 C   0  0  0  0  0  0  0  0  0  0  0  0
    3.3147    1.0313    0.0000 C   0  0  0  0  0  0  0  0  0  0  0  0
    3.3147    0.2063    0.0000 C   0  0  0  0  0  0  0  0  0  0  0  0
    4.0291   -0.2063    0.0000 O   0  0  0  0  0  0  0  0  0  0  0  0
    4.0291   -1.0313    0.0000 C   0  0  0  0  0  0  0  0  0  0  0  0
    4.7436   -1.4438    0.0000 C   0  0  0  0  0  0  0  0  0  0  0  0
    4.7436   -2.2688    0.0000 C   0  0  0  0  0  0  0  0  0  0  0  0
    4.0291   -2.6813    0.0000 C   0  0  0  0  0  0  0  0  0  0  0  0
    3.3147   -2.2688    0.0000 C   0  0  0  0  0  0  0  0  0  0  0  0
    3.3147   -1.4437    0.0000 C   0  0  0  0  0  0  0  0  0  0  0  0
    2.6002   -0.2062    0.0000 C   0  0  0  0  0  0  0  0  0  0  0  0
    1.8857    0.2063    0.0000 C   0  0  0  0  0  0  0  0  0  0  0  0
    1.8857    1.0313    0.0000 N   0  0  0  0  0  0  0  0  0  0  0  0
  2  3  1  0  0  0  0
  3  4  2  0  0  0  0
  3  5  1  0  0  0  0
  5  6  2  0  0  0  0
  6  7  1  0  0  0  0
  7  8  1  0  0  0  0
  8  9  1  0  0  0  0
  9 10  2  0  0  0  0
 10 11  1  0  0  0  0
 11 12  2  0  0  0  0
 12 13  1  0  0  0  0
 13 14  2  0  0  0  0
  9 14  1  0  0  0  0
  7 15  2  0  0  0  0
 15 16  1  0  0  0  0
 16 17  2  0  0  0  0
  5 17  1  0  0  0  0
M  END
>  <Catalog ID>
Z2685901890

>  <PlateID>
1198308-R-SPFL-10

>  <Well>
E02

>  <MW (desalted)>
215.205

>  <ClogP>
3.097

>  <HBD>
1

>  <TPSA>
59.420

>  <RotBonds>
3

$$$$

            

 12 13  0  0  0  0            999 V2000
    0.0000   -2.4750    0.0000 C   0  0  0  0  0  0  0  0  0  0  0  0
    0.0000   -1.6500    0.0000 O   0  0  0  0  0  0  0  0  0  0  0  0
    0.7145   -1.2375    0.0000 C   0  0  0  0  0  0  0  0  0  0  0  0
    0.7145   -0.4125    0.0000 C   0  0  0  0  0  0  0  0  0  0  0  0
    1.4289    0.0000    0.0000 C   0  0  0  0  0  0  0  0  0  0  0  0
    2.1434   -0.4125    0.0000 C   0  0  0  0  0  0  0  0  0  0  0  0
    2.8579    0.0000    0.0000 C   0  0  0  0  0  0  0  0  0  0  0  0
    3.5724   -0.4125    0.0000 N   0  0  0  0  0  0  0  0  0  0  0  0
    3.5724   -1.2375    0.0000 C   0  0  0  0  0  0  0  0  0  0  0  0
    2.8579   -1.6500    0.0000 C   0  0  0  0  0  0  0  0  0  0  0  0
    2.1434   -1.2375    0.0000 C   0  0  0  0  0  0  0  0  0  0  0  0
    1.4289   -1.6500    0.0000 C   0  0  0  0  0  0  0  0  0  0  0  0
  1  2  1  0  0  0  0
  2  3  1  0  0  0  0
  3  4  1  0  0  0  0
  4  5  2  0  0  0  0
  5  6  1  0  0  0  0
  6  7  2  0  0  0  0
  7  8  1  0  0  0  0
  8  9  2  0  0  0  0
  9 10  1  0  0  0  0
 10 11  2  0  0  0  0
  6 11  1  0  0  0  0
 11 12  1  0  0  0  0
  3 12  2  0  0  0  0
M  END
>  <Catalog ID>
Z1201622861

>  <PlateID>
1198308-R-SPFL-10

>  <Well>
E03

>  <MW (desalted)>
159.185

>  <ClogP>
2.114

>  <HBD>
0

>  <TPSA>
22.120

>  <RotBonds>
1

$$$$

            

 12 13  0  0  0  0            999 V2000
    3.4990    1.1104    0.0000 O   0  0  0  0  0  0  0  0  0  0  0  0
    2.7845    0.6979    0.0000 C   0  0  0  0  0  0  0  0  0  0  0  0
    2.7845   -0.1271    0.0000 O   0  0  0  0  0  0  0  0  0  0  0  0
    2.0701    1.1104    0.0000 C   0  0  0  0  0  0  0  0  0  0  0  0
    1.3556    0.6979    0.0000 C   0  0  0  0  0  0  0  0  0  0  0  0
    0.6411    1.1104    0.0000 C   0  0  0  0  0  0  0  0  0  0  0  0
   -0.1435    0.8555    0.0000 S   0  0  0  0  0  0  0  0  0  0  0  0
   -0.6284    1.5229    0.0000 C   0  0  0  0  0  0  0  0  0  0  0  0
   -0.1435    2.1904    0.0000 C   0  0  0  0  0  0  0  0  0  0  0  0
    0.6411    1.9354    0.0000 C   0  0  0  0  0  0  0  0  0  0  0  0
    1.3556    2.3479    0.0000 C   0  0  0  0  0  0  0  0  0  0  0  0
    2.0701    1.9354    0.0000 N   0  0  0  0  0  0  0  0  0  0  0  0
  1  2  1  0  0  0  0
  2  3  2  0  0  0  0
  2  4  1  0  0  0  0
  4  5  1  0  0  0  0
  5  6  2  0  0  0  0
  6  7  1  0  0  0  0
  7  8  1  0  0  0  0
  8  9  2  0  0  0  0
  9 10  1  0  0  0  0
  6 10  1  0  0  0  0
 10 11  2  0  0  0  0
 11 12  1  0  0  0  0
  4 12  2  0  0  0  0
M  END
>  <Catalog ID>
Z810507714

>  <PlateID>
1198308-R-SPFL-10

>  <Well>
E04

>  <MW (desalted)>
179.196

>  <ClogP>
2.168

>  <HBD>
1

>  <TPSA>
50.190

>  <RotBonds>
1

$$$$

            

 14 14  0  0  0  0            999 V2000
    0.0000    0.0000    0.0000 Cl  0  0  0  0  0  0  0  0  0  0  0  0
    5.2446    1.9948    0.0000 N   0  0  0  0  0  0  0  0  0  0  0  0
    5.2446    1.1698    0.0000 C   0  0  0  0  0  0  0  0  0  0  0  0
    5.9120    0.6849    0.0000 C   0  0  0  0  0  0  0  0  0  0  0  0
    5.6571   -0.0997    0.0000 C   0  0  0  0  0  0  0  0  0  0  0  0
    4.8321   -0.0997    0.0000 N   0  0  0  0  0  0  0  0  0  0  0  0
    4.3472   -0.7671    0.0000 C   0  0  0  0  0  0  0  0  0  0  0  0
    3.5267   -0.6809    0.0000 C   0  0  0  0  0  0  0  0  0  0  0  0
    3.0418   -1.3483    0.0000 C   0  0  0  0  0  0  0  0  0  0  0  0
    2.2213   -1.2621    0.0000 C   0  0  0  0  0  0  0  0  0  0  0  0
    1.8857   -0.5084    0.0000 C   0  0  0  0  0  0  0  0  0  0  0  0
    2.3706    0.1590    0.0000 C   0  0  0  0  0  0  0  0  0  0  0  0
    3.1911    0.0728    0.0000 C   0  0  0  0  0  0  0  0  0  0  0  0
    4.5771    0.6849    0.0000 N   0  0  0  0  0  0  0  0  0  0  0  0
  2  3  1  0  0  0  0
  3  4  1  0  0  0  0
  4  5  2  0  0  0  0
  5  6  1  0  0  0  0
  6  7  1  0  0  0  0
  7  8  1  0  0  0  0
  8  9  2  0  0  0  0
  9 10  1  0  0  0  0
 10 11  2  0  0  0  0
 11 12  1  0  0  0  0
 12 13  2  0  0  0  0
  8 13  1  0  0  0  0
  6 14  1  0  0  0  0
  3 14  2  0  0  0  0
M  END
>  <Catalog ID>
Z1891773965

>  <PlateID>
1198308-R-SPFL-10

>  <Well>
E05

>  <MW (desalted)>
173.214

>  <ClogP>
1.430

>  <HBD>
1

>  <TPSA>
43.840

>  <RotBonds>
2

$$$$

            

 11 12  0  0  0  0            999 V2000
    1.1270   -2.5070    0.0000 C   0  0  0  0  0  0  0  0  0  0  0  0
    0.3020   -2.5070    0.0000 C   0  0  0  0  0  0  0  0  0  0  0  0
    0.0470   -1.7224    0.0000 O   0  0  0  0  0  0  0  0  0  0  0  0
    0.7145   -1.2375    0.0000 C   0  0  0  0  0  0  0  0  0  0  0  0
    1.3819   -1.7224    0.0000 C   0  0  0  0  0  0  0  0  0  0  0  0
    0.7145   -0.4125    0.0000 C   0  0  0  0  0  0  0  0  0  0  0  0
    0.0000    0.0000    0.0000 C   0  0  0  0  0  0  0  0  0  0  0  0
    0.0000    0.8250    0.0000 C   0  0  0  0  0  0  0  0  0  0  0  0
    0.7145    1.2375    0.0000 N   0  0  0  0  0  0  0  0  0  0  0  0
    1.4289    0.8250    0.0000 C   0  0  0  0  0  0  0  0  0  0  0  0
    1.4289   -0.0000    0.0000 C   0  0  0  0  0  0  0  0  0  0  0  0
  1  2  1  0  0  0  0
  2  3  1  0  0  0  0
  3  4  1  0  0  0  0
  4  5  1  0  0  0  0
  1  5  1  0  0  0  0
  4  6  1  0  0  0  0
  6  7  1  0  0  0  0
  7  8  1  0  0  0  0
  8  9  1  0  0  0  0
  9 10  1  0  0  0  0
 10 11  1  0  0  0  0
  6 11  1  0  0  0  0
M  END
>  <Catalog ID>
Z1198305482

>  <PlateID>
1198308-R-SPFL-10

>  <Well>
E06

>  <MW (desalted)>
155.237

>  <ClogP>
0.657

>  <HBD>
1

>  <TPSA>
21.260

>  <RotBonds>
1

$$$$

            

 11 11  0  0  0  0            999 V2000
    0.0000    0.0000    0.0000 Cl  0  0  0  0  0  0  0  0  0  0  0  0
    2.3571   -0.6483    0.0000 N   0  0  0  0  0  0  0  0  0  0  0  0
    2.5287    0.1586    0.0000 C   0  0  0  0  0  0  0  0  0  0  0  0
    1.9766    0.7717    0.0000 N   0  0  0  0  0  0  0  0  0  0  0  0
    2.3891    1.4862    0.0000 C   0  0  0  0  0  0  0  0  0  0  0  0
    3.1961    1.3147    0.0000 C   0  0  0  0  0  0  0  0  0  0  0  0
    3.2823    0.4942    0.0000 N   0  0  0  0  0  0  0  0  0  0  0  0
    3.9968    0.0817    0.0000 C   0  0  0  0  0  0  0  0  0  0  0  0
    3.9968   -0.7433    0.0000 C   0  0  0  0  0  0  0  0  0  0  0  0
    4.4093   -1.4578    0.0000 C   0  0  0  0  0  0  0  0  0  0  0  0
    3.5843   -1.4578    0.0000 C   0  0  0  0  0  0  0  0  0  0  0  0
  2  3  1  0  0  0  0
  3  4  2  0  0  0  0
  4  5  1  0  0  0  0
  5  6  2  0  0  0  0
  6  7  1  0  0  0  0
  3  7  1  0  0  0  0
  7  8  1  0  0  0  0
  8  9  1  0  0  0  0
  9 10  1  0  0  0  0
 10 11  1  0  0  0  0
  9 11  1  0  0  0  0
M  END
>  <Catalog ID>
Z1891774358

>  <PlateID>
1198308-R-SPFL-10

>  <Well>
E07

>  <MW (desalted)>
137.182

>  <ClogP>
0.675

>  <HBD>
1

>  <TPSA>
43.840

>  <RotBonds>
2

$$$$

            

 12 13  0  0  0  0            999 V2000
    0.8838   -2.1500    0.0000 C   0  0  0  0  0  0  0  0  0  0  0  0
    1.1387   -1.3654    0.0000 N   0  0  0  0  0  0  0  0  0  0  0  0
    0.6538   -0.6979    0.0000 N   0  0  0  0  0  0  0  0  0  0  0  0
    1.1387   -0.0305    0.0000 N   0  0  0  0  0  0  0  0  0  0  0  0
    1.9233   -0.2854    0.0000 C   0  0  0  0  0  0  0  0  0  0  0  0
    2.6378    0.1271    0.0000 C   0  0  0  0  0  0  0  0  0  0  0  0
    3.3523   -0.2854    0.0000 C   0  0  0  0  0  0  0  0  0  0  0  0
    4.0668    0.1271    0.0000 C   0  0  0  0  0  0  0  0  0  0  0  0
    4.0668    0.9521    0.0000 O   0  0  0  0  0  0  0  0  0  0  0  0
    3.3523   -1.1104    0.0000 C   0  0  0  0  0  0  0  0  0  0  0  0
    2.6378   -1.5229    0.0000 C   0  0  0  0  0  0  0  0  0  0  0  0
    1.9233   -1.1104    0.0000 C   0  0  0  0  0  0  0  0  0  0  0  0
  1  2  1  0  0  0  0
  2  3  1  0  0  0  0
  3  4  2  0  0  0  0
  4  5  1  0  0  0  0
  5  6  2  0  0  0  0
  6  7  1  0  0  0  0
  7  8  1  0  0  0  0
  8  9  1  0  0  0  0
  7 10  2  0  0  0  0
 10 11  1  0  0  0  0
 11 12  2  0  0  0  0
  2 12  1  0  0  0  0
  5 12  1  0  0  0  0
M  END
>  <Catalog ID>
Z1201620716

>  <PlateID>
1198308-R-SPFL-10

>  <Well>
E08

>  <MW (desalted)>
163.177

>  <ClogP>
0.026

>  <HBD>
1

>  <TPSA>
50.940

>  <RotBonds>
1

$$$$

            

 15 14  0  0  0  0            999 V2000
    0.0000    0.0000    0.0000 Cl  0  0  0  0  0  0  0  0  0  0  0  0
    2.0036    0.0000    0.0000 Cl  0  0  0  0  0  0  0  0  0  0  0  0
   -1.3740   -5.3625    0.0000 C   0  0  0  0  0  0  0  0  0  0  0  0
   -1.3740   -4.5375    0.0000 C   0  0  0  0  0  0  0  0  0  0  0  0
   -0.6595   -4.1250    0.0000 C   0  0  0  0  0  0  0  0  0  0  0  0
    0.0550   -4.5375    0.0000 C   0  0  0  0  0  0  0  0  0  0  0  0
    0.0550   -5.3625    0.0000 C   0  0  0  0  0  0  0  0  0  0  0  0
   -0.6595   -5.7750    0.0000 N   0  0  0  0  0  0  0  0  0  0  0  0
   -0.6595   -3.3000    0.0000 O   0  0  0  0  0  0  0  0  0  0  0  0
    0.0550   -2.8875    0.0000 C   0  0  0  0  0  0  0  0  0  0  0  0
    0.0550   -2.0625    0.0000 C   0  0  0  0  0  0  0  0  0  0  0  0
    0.7694   -1.6500    0.0000 C   0  0  0  0  0  0  0  0  0  0  0  0
    1.4839   -2.0625    0.0000 C   0  0  0  0  0  0  0  0  0  0  0  0
    1.4839   -2.8875    0.0000 C   0  0  0  0  0  0  0  0  0  0  0  0
    0.7694   -3.3000    0.0000 N   0  0  0  0  0  0  0  0  0  0  0  0
  3  4  1  0  0  0  0
  4  5  1  0  0  0  0
  5  6  1  0  0  0  0
  6  7  1  0  0  0  0
  7  8  1  0  0  0  0
  3  8  1  0  0  0  0
  5  9  1  0  0  0  0
  9 10  1  0  0  0  0
 10 11  2  0  0  0  0
 11 12  1  0  0  0  0
 12 13  2  0  0  0  0
 13 14  1  0  0  0  0
 14 15  2  0  0  0  0
 10 15  1  0  0  0  0
M  END
>  <Catalog ID>
Z1695728986

>  <PlateID>
1198308-R-SPFL-10

>  <Well>
E09

>  <MW (desalted)>
178.231

>  <ClogP>
1.077

>  <HBD>
1

>  <TPSA>
34.150

>  <RotBonds>
2

$$$$

            

 12 13  0  0  0  0            999 V2000
    4.0668    3.1729    0.0000 O   0  0  0  0  0  0  0  0  0  0  0  0
    4.0668    2.3479    0.0000 C   0  0  0  0  0  0  0  0  0  0  0  0
    4.7812    1.9354    0.0000 O   0  0  0  0  0  0  0  0  0  0  0  0
    3.3523    1.9354    0.0000 C   0  0  0  0  0  0  0  0  0  0  0  0
    3.3523    1.1104    0.0000 C   0  0  0  0  0  0  0  0  0  0  0  0
    2.6378    0.6979    0.0000 N   0  0  0  0  0  0  0  0  0  0  0  0
    1.9233    1.1104    0.0000 C   0  0  0  0  0  0  0  0  0  0  0  0
    1.1387    0.8555    0.0000 S   0  0  0  0  0  0  0  0  0  0  0  0
    0.6538    1.5229    0.0000 C   0  0  0  0  0  0  0  0  0  0  0  0
    1.1387    2.1904    0.0000 C   0  0  0  0  0  0  0  0  0  0  0  0
    1.9233    1.9354    0.0000 C   0  0  0  0  0  0  0  0  0  0  0  0
    2.6378    2.3479    0.0000 C   0  0  0  0  0  0  0  0  0  0  0  0
  1  2  1  0  0  0  0
  2  3  2  0  0  0  0
  2  4  1  0  0  0  0
  4  5  2  0  0  0  0
  5  6  1  0  0  0  0
  6  7  2  0  0  0  0
  7  8  1  0  0  0  0
  8  9  1  0  0  0  0
  9 10  2  0  0  0  0
 10 11  1  0  0  0  0
  7 11  1  0  0  0  0
 11 12  2  0  0  0  0
  4 12  1  0  0  0  0
M  END
>  <Catalog ID>
Z1258977853

>  <PlateID>
1198308-R-SPFL-10

>  <Well>
E10

>  <MW (desalted)>
179.196

>  <ClogP>
1.968

>  <HBD>
1

>  <TPSA>
50.190

>  <RotBonds>
1

$$$$

            

 11 12  0  0  0  0            999 V2000
    0.0000   -1.6500    0.0000 Cl  0  0  0  0  0  0  0  0  0  0  0  0
    0.7145   -1.2375    0.0000 C   0  0  0  0  0  0  0  0  0  0  0  0
    0.7145   -0.4125    0.0000 C   0  0  0  0  0  0  0  0  0  0  0  0
    1.4289    0.0000    0.0000 C   0  0  0  0  0  0  0  0  0  0  0  0
    2.1434   -0.4125    0.0000 C   0  0  0  0  0  0  0  0  0  0  0  0
    2.8579    0.0000    0.0000 O   0  0  0  0  0  0  0  0  0  0  0  0
    3.5724   -0.4125    0.0000 C   0  0  0  0  0  0  0  0  0  0  0  0
    3.5724   -1.2375    0.0000 C   0  0  0  0  0  0  0  0  0  0  0  0
    2.8579   -1.6500    0.0000 N   0  0  0  0  0  0  0  0  0  0  0  0
    2.1434   -1.2375    0.0000 C   0  0  0  0  0  0  0  0  0  0  0  0
    1.4289   -1.6500    0.0000 C   0  0  0  0  0  0  0  0  0  0  0  0
  1  2  1  0  0  0  0
  2  3  2  0  0  0  0
  3  4  1  0  0  0  0
  4  5  2  0  0  0  0
  5  6  1  0  0  0  0
  6  7  1  0  0  0  0
  7  8  1  0  0  0  0
  8  9  1  0  0  0  0
  9 10  1  0  0  0  0
  5 10  1  0  0  0  0
 10 11  2  0  0  0  0
  2 11  1  0  0  0  0
M  END
>  <Catalog ID>
Z1198179941

>  <PlateID>
1198308-R-SPFL-10

>  <Well>
E11

>  <MW (desalted)>
169.608

>  <ClogP>
2.598

>  <HBD>
1

>  <TPSA>
21.260

>  <RotBonds>
0

$$$$

            

 17 16  0  0  0  0            999 V2000
    0.0000    0.0000    0.0000 Cl  0  0  0  0  0  0  0  0  0  0  0  0
    2.0036    0.0000    0.0000 Cl  0  0  0  0  0  0  0  0  0  0  0  0
    1.3913   -1.6500    0.0000 C   0  0  0  0  0  0  0  0  0  0  0  0
    1.3913   -2.4750    0.0000 N   0  0  0  0  0  0  0  0  0  0  0  0
    2.0587   -2.9599    0.0000 C   0  0  0  0  0  0  0  0  0  0  0  0
    1.8038   -3.7445    0.0000 C   0  0  0  0  0  0  0  0  0  0  0  0
    0.9788   -3.7445    0.0000 C   0  0  0  0  0  0  0  0  0  0  0  0
    0.7238   -2.9599    0.0000 N   0  0  0  0  0  0  0  0  0  0  0  0
    0.4938   -4.4120    0.0000 C   0  0  0  0  0  0  0  0  0  0  0  0
    0.8294   -5.1657    0.0000 N   0  0  0  0  0  0  0  0  0  0  0  0
   -0.3266   -4.3257    0.0000 C   0  0  0  0  0  0  0  0  0  0  0  0
   -0.8116   -4.9932    0.0000 C   0  0  0  0  0  0  0  0  0  0  0  0
   -1.6320   -4.9070    0.0000 C   0  0  0  0  0  0  0  0  0  0  0  0
   -1.9676   -4.1533    0.0000 C   0  0  0  0  0  0  0  0  0  0  0  0
   -2.7881   -4.0670    0.0000 F   0  0  0  0  0  0  0  0  0  0  0  0
   -1.4827   -3.4858    0.0000 C   0  0  0  0  0  0  0  0  0  0  0  0
   -0.6622   -3.5721    0.0000 C   0  0  0  0  0  0  0  0  0  0  0  0
  3  4  1  0  0  0  0
  4  5  1  0  0  0  0
  5  6  2  0  0  0  0
  6  7  1  0  0  0  0
  7  8  2  0  0  0  0
  4  8  1  0  0  0  0
  7  9  1  0  0  0  0
  9 10  1  0  0  0  0
  9 11  1  0  0  0  0
 11 12  2  0  0  0  0
 12 13  1  0  0  0  0
 13 14  2  0  0  0  0
 14 15  1  0  0  0  0
 14 16  1  0  0  0  0
 16 17  2  0  0  0  0
 11 17  1  0  0  0  0
M  END
>  <Catalog ID>
Z3292108351

>  <PlateID>
1198308-R-SPFL-10

>  <Well>
F02

>  <MW (desalted)>
205.231

>  <ClogP>
0.700

>  <HBD>
1

>  <TPSA>
43.840

>  <RotBonds>
2

$$$$

            

 16 15  0  0  0  0            999 V2000
    0.0000    0.0000    0.0000 Cl  0  0  0  0  0  0  0  0  0  0  0  0
    2.0036    0.0000    0.0000 Cl  0  0  0  0  0  0  0  0  0  0  0  0
   -1.2758   -2.8875    0.0000 N   0  0  0  0  0  0  0  0  0  0  0  0
   -0.5614   -3.3000    0.0000 C   0  0  0  0  0  0  0  0  0  0  0  0
   -0.5614   -4.1250    0.0000 C   0  0  0  0  0  0  0  0  0  0  0  0
    0.1531   -4.5375    0.0000 C   0  0  0  0  0  0  0  0  0  0  0  0
    0.1531   -5.3625    0.0000 C   0  0  0  0  0  0  0  0  0  0  0  0
   -0.5614   -5.7750    0.0000 C   0  0  0  0  0  0  0  0  0  0  0  0
   -1.2758   -5.3625    0.0000 C   0  0  0  0  0  0  0  0  0  0  0  0
   -1.2758   -4.5375    0.0000 C   0  0  0  0  0  0  0  0  0  0  0  0
    0.1531   -2.8875    0.0000 C   0  0  0  0  0  0  0  0  0  0  0  0
    0.1531   -2.0625    0.0000 C   0  0  0  0  0  0  0  0  0  0  0  0
    0.8676   -1.6500    0.0000 C   0  0  0  0  0  0  0  0  0  0  0  0
    1.5820   -2.0625    0.0000 N   0  0  0  0  0  0  0  0  0  0  0  0
    1.5820   -2.8875    0.0000 C   0  0  0  0  0  0  0  0  0  0  0  0
    0.8676   -3.3000    0.0000 C   0  0  0  0  0  0  0  0  0  0  0  0
  3  4  1  0  0  0  0
  4  5  1  0  0  0  0
  5  6  2  0  0  0  0
  6  7  1  0  0  0  0
  7  8  2  0  0  0  0
  8  9  1  0  0  0  0
  9 10  2  0  0  0  0
  5 10  1  0  0  0  0
  4 11  1  0  0  0  0
 11 12  2  0  0  0  0
 12 13  1  0  0  0  0
 13 14  2  0  0  0  0
 14 15  1  0  0  0  0
 15 16  2  0  0  0  0
 11 16  1  0  0  0  0
M  END
>  <Catalog ID>
Z118438300

>  <PlateID>
1198308-R-SPFL-10

>  <Well>
F03

>  <MW (desalted)>
184.237

>  <ClogP>
0.945

>  <HBD>
1

>  <TPSA>
38.910

>  <RotBonds>
2

$$$$

            

 11 12  0  0  0  0            999 V2000
    1.4289   -2.4750    0.0000 O   0  0  0  0  0  0  0  0  0  0  0  0
    1.4289   -1.6500    0.0000 C   0  0  0  0  0  0  0  0  0  0  0  0
    0.7145   -1.2375    0.0000 N   0  0  0  0  0  0  0  0  0  0  0  0
    0.7145   -0.4125    0.0000 N   0  0  0  0  0  0  0  0  0  0  0  0
    1.4289    0.0000    0.0000 C   0  0  0  0  0  0  0  0  0  0  0  0
    2.1434   -0.4125    0.0000 C   0  0  0  0  0  0  0  0  0  0  0  0
    2.8579    0.0000    0.0000 C   0  0  0  0  0  0  0  0  0  0  0  0
    3.5724   -0.4125    0.0000 C   0  0  0  0  0  0  0  0  0  0  0  0
    3.5724   -1.2375    0.0000 C   0  0  0  0  0  0  0  0  0  0  0  0
    2.8579   -1.6500    0.0000 N   0  0  0  0  0  0  0  0  0  0  0  0
    2.1434   -1.2375    0.0000 C   0  0  0  0  0  0  0  0  0  0  0  0
  1  2  2  0  0  0  0
  2  3  1  0  0  0  0
  3  4  1  0  0  0  0
  4  5  2  0  0  0  0
  5  6  1  0  0  0  0
  6  7  2  0  0  0  0
  7  8  1  0  0  0  0
  8  9  2  0  0  0  0
  9 10  1  0  0  0  0
 10 11  2  0  0  0  0
  2 11  1  0  0  0  0
  6 11  1  0  0  0  0
M  END
>  <Catalog ID>
Z1224947968

>  <PlateID>
1198308-R-SPFL-10

>  <Well>
F04

>  <MW (desalted)>
147.134

>  <ClogP>
-1.243

>  <HBD>
1

>  <TPSA>
54.350

>  <RotBonds>
0

$$$$

            

 16 15  0  0  0  0            999 V2000
    0.0000    0.0000    0.0000 Cl  0  0  0  0  0  0  0  0  0  0  0  0
    2.0036    0.0000    0.0000 Cl  0  0  0  0  0  0  0  0  0  0  0  0
   -2.5006   -2.8875    0.0000 N   0  0  0  0  0  0  0  0  0  0  0  0
   -1.7862   -3.3000    0.0000 C   0  0  0  0  0  0  0  0  0  0  0  0
   -1.0717   -2.8875    0.0000 C   0  0  0  0  0  0  0  0  0  0  0  0
   -1.0717   -2.0625    0.0000 C   0  0  0  0  0  0  0  0  0  0  0  0
   -0.3572   -1.6500    0.0000 C   0  0  0  0  0  0  0  0  0  0  0  0
    0.3572   -2.0625    0.0000 C   0  0  0  0  0  0  0  0  0  0  0  0
    0.3572   -2.8875    0.0000 C   0  0  0  0  0  0  0  0  0  0  0  0
    1.0717   -3.3000    0.0000 C   0  0  0  0  0  0  0  0  0  0  0  0
    1.0717   -4.1250    0.0000 N   0  0  0  0  0  0  0  0  0  0  0  0
    1.7391   -4.6099    0.0000 C   0  0  0  0  0  0  0  0  0  0  0  0
    1.4842   -5.3945    0.0000 C   0  0  0  0  0  0  0  0  0  0  0  0
    0.6592   -5.3945    0.0000 N   0  0  0  0  0  0  0  0  0  0  0  0
    0.4043   -4.6099    0.0000 C   0  0  0  0  0  0  0  0  0  0  0  0
   -0.3572   -3.3000    0.0000 C   0  0  0  0  0  0  0  0  0  0  0  0
  3  4  1  0  0  0  0
  4  5  1  0  0  0  0
  5  6  2  0  0  0  0
  6  7  1  0  0  0  0
  7  8  2  0  0  0  0
  8  9  1  0  0  0  0
  9 10  1  0  0  0  0
 10 11  1  0  0  0  0
 11 12  1  0  0  0  0
 12 13  2  0  0  0  0
 13 14  1  0  0  0  0
 14 15  2  0  0  0  0
 11 15  1  0  0  0  0
  9 16  2  0  0  0  0
  5 16  1  0  0  0  0
M  END
>  <Catalog ID>
Z2680728469

>  <PlateID>
1198308-R-SPFL-10

>  <Well>
F05

>  <MW (desalted)>
187.241

>  <ClogP>
0.457

>  <HBD>
1

>  <TPSA>
43.840

>  <RotBonds>
3

$$$$

            

 12 13  0  0  0  0            999 V2000
    0.7145   -0.4125    0.0000 N   0  0  0  0  0  0  0  0  0  0  0  0
    0.7145   -1.2375    0.0000 C   0  0  0  0  0  0  0  0  0  0  0  0
    1.3819   -1.7224    0.0000 C   0  0  0  0  0  0  0  0  0  0  0  0
    1.1270   -2.5070    0.0000 N   0  0  0  0  0  0  0  0  0  0  0  0
    0.3020   -2.5070    0.0000 N   0  0  0  0  0  0  0  0  0  0  0  0
    0.0470   -1.7224    0.0000 C   0  0  0  0  0  0  0  0  0  0  0  0
   -0.1830   -3.1745    0.0000 C   0  0  0  0  0  0  0  0  0  0  0  0
    0.1526   -3.9282    0.0000 C   0  0  0  0  0  0  0  0  0  0  0  0
   -0.3323   -4.5956    0.0000 C   0  0  0  0  0  0  0  0  0  0  0  0
   -1.1528   -4.5094    0.0000 C   0  0  0  0  0  0  0  0  0  0  0  0
   -1.4884   -3.7557    0.0000 C   0  0  0  0  0  0  0  0  0  0  0  0
   -1.0034   -3.0882    0.0000 C   0  0  0  0  0  0  0  0  0  0  0  0
  1  2  1  0  0  0  0
  2  3  1  0  0  0  0
  3  4  2  0  0  0  0
  4  5  1  0  0  0  0
  5  6  1  0  0  0  0
  2  6  2  0  0  0  0
  5  7  1  0  0  0  0
  7  8  2  0  0  0  0
  8  9  1  0  0  0  0
  9 10  2  0  0  0  0
 10 11  1  0  0  0  0
 11 12  2  0  0  0  0
  7 12  1  0  0  0  0
M  END
>  <Catalog ID>
Z381353862

>  <PlateID>
1198308-R-SPFL-10

>  <Well>
F06

>  <MW (desalted)>
159.188

>  <ClogP>
1.412

>  <HBD>
1

>  <TPSA>
43.840

>  <RotBonds>
1

$$$$

            

 11 10  0  0  0  0            999 V2000
    0.0000    0.0000    0.0000 Cl  0  0  0  0  0  0  0  0  0  0  0  0
    1.7679    1.3821    0.0000 F   0  0  0  0  0  0  0  0  0  0  0  0
    2.4823    0.9696    0.0000 C   0  0  0  0  0  0  0  0  0  0  0  0
    2.0698    0.2552    0.0000 F   0  0  0  0  0  0  0  0  0  0  0  0
    2.8948    1.6841    0.0000 F   0  0  0  0  0  0  0  0  0  0  0  0
    3.1968    0.5571    0.0000 C   0  0  0  0  0  0  0  0  0  0  0  0
    3.1968   -0.2679    0.0000 C   0  0  0  0  0  0  0  0  0  0  0  0
    3.8642   -0.7528    0.0000 C   0  0  0  0  0  0  0  0  0  0  0  0
    3.6093   -1.5374    0.0000 C   0  0  0  0  0  0  0  0  0  0  0  0
    2.7843   -1.5374    0.0000 C   0  0  0  0  0  0  0  0  0  0  0  0
    2.5294   -0.7528    0.0000 N   0  0  0  0  0  0  0  0  0  0  0  0
  2  3  1  0  0  0  0
  3  4  1  0  0  0  0
  3  5  1  0  0  0  0
  3  6  1  0  0  0  0
  6  7  1  0  0  0  0
  7  8  1  0  0  0  0
  8  9  1  0  0  0  0
  9 10  1  0  0  0  0
 10 11  1  0  0  0  0
  7 11  1  0  0  0  0
M  END
>  <Catalog ID>
Z1913661208

>  <PlateID>
1198308-R-SPFL-10

>  <Well>
F07

>  <MW (desalted)>
153.146

>  <ClogP>
1.138

>  <HBD>
1

>  <TPSA>
12.030

>  <RotBonds>
2

$$$$

            

 10 11  0  0  0  0            999 V2000
    1.6689   -2.2748    0.0000 C   0  0  0  0  0  0  0  0  0  0  0  0
    0.8439   -2.2748    0.0000 C   0  0  0  0  0  0  0  0  0  0  0  0
    0.5890   -1.4901    0.0000 S   0  0  0  0  0  0  0  0  0  0  0  0
    1.2564   -1.0052    0.0000 C   0  0  0  0  0  0  0  0  0  0  0  0
    1.9239   -1.4901    0.0000 C   0  0  0  0  0  0  0  0  0  0  0  0
    1.2564   -0.1802    0.0000 C   0  0  0  0  0  0  0  0  0  0  0  0
    0.5890    0.3047    0.0000 N   0  0  0  0  0  0  0  0  0  0  0  0
    0.8439    1.0893    0.0000 C   0  0  0  0  0  0  0  0  0  0  0  0
    1.6689    1.0893    0.0000 C   0  0  0  0  0  0  0  0  0  0  0  0
    1.9239    0.3047    0.0000 N   0  0  0  0  0  0  0  0  0  0  0  0
  1  2  2  0  0  0  0
  2  3  1  0  0  0  0
  3  4  1  0  0  0  0
  4  5  2  0  0  0  0
  1  5  1  0  0  0  0
  4  6  1  0  0  0  0
  6  7  2  0  0  0  0
  7  8  1  0  0  0  0
  8  9  2  0  0  0  0
  9 10  1  0  0  0  0
  6 10  1  0  0  0  0
M  END
>  <Catalog ID>
Z608484262

>  <PlateID>
1198308-R-SPFL-10

>  <Well>
F08

>  <MW (desalted)>
150.201

>  <ClogP>
1.975

>  <HBD>
1

>  <TPSA>
28.680

>  <RotBonds>
1

$$$$

            

 13 12  0  0  0  0            999 V2000
    0.0000    0.0000    0.0000 Cl  0  0  0  0  0  0  0  0  0  0  0  0
    3.9690    2.4791    0.0000 N   0  0  0  0  0  0  0  0  0  0  0  0
    3.2546    2.0666    0.0000 C   0  0  0  0  0  0  0  0  0  0  0  0
    3.2546    1.2416    0.0000 C   0  0  0  0  0  0  0  0  0  0  0  0
    3.9220    0.7567    0.0000 N   0  0  0  0  0  0  0  0  0  0  0  0
    3.6671   -0.0279    0.0000 O   0  0  0  0  0  0  0  0  0  0  0  0
    2.8421   -0.0279    0.0000 C   0  0  0  0  0  0  0  0  0  0  0  0
    2.3571   -0.6953    0.0000 C   0  0  0  0  0  0  0  0  0  0  0  0
    2.6927   -1.4490    0.0000 C   0  0  0  0  0  0  0  0  0  0  0  0
    3.0283   -2.2027    0.0000 F   0  0  0  0  0  0  0  0  0  0  0  0
    1.9390   -1.7846    0.0000 F   0  0  0  0  0  0  0  0  0  0  0  0
    3.4464   -1.1135    0.0000 F   0  0  0  0  0  0  0  0  0  0  0  0
    2.5871    0.7567    0.0000 N   0  0  0  0  0  0  0  0  0  0  0  0
  2  3  1  0  0  0  0
  3  4  1  0  0  0  0
  4  5  2  0  0  0  0
  5  6  1  0  0  0  0
  6  7  1  0  0  0  0
  7  8  1  0  0  0  0
  8  9  1  0  0  0  0
  9 10  1  0  0  0  0
  9 11  1  0  0  0  0
  9 12  1  0  0  0  0
  7 13  2  0  0  0  0
  4 13  1  0  0  0  0
M  END
>  <Catalog ID>
Z1474026473

>  <PlateID>
1198308-R-SPFL-10

>  <Well>
F09

>  <MW (desalted)>
181.116

>  <ClogP>
-0.812

>  <HBD>
1

>  <TPSA>
64.940

>  <RotBonds>
3

$$$$

            

 14 15  0  0  0  0            999 V2000
    1.4289   -3.3000    0.0000 C   0  0  0  0  0  0  0  0  0  0  0  0
    1.4289   -2.4750    0.0000 S   0  0  0  0  0  0  0  0  0  0  0  0
    2.2539   -2.4750    0.0000 O   0  0  0  0  0  0  0  0  0  0  0  0
    0.6039   -2.4750    0.0000 O   0  0  0  0  0  0  0  0  0  0  0  0
    1.4289   -1.6500    0.0000 C   0  0  0  0  0  0  0  0  0  0  0  0
    0.7145   -1.2375    0.0000 C   0  0  0  0  0  0  0  0  0  0  0  0
    0.7145   -0.4125    0.0000 C   0  0  0  0  0  0  0  0  0  0  0  0
    1.4289    0.0000    0.0000 C   0  0  0  0  0  0  0  0  0  0  0  0
    2.1434   -0.4125    0.0000 C   0  0  0  0  0  0  0  0  0  0  0  0
    2.8579    0.0000    0.0000 C   0  0  0  0  0  0  0  0  0  0  0  0
    3.5724   -0.4125    0.0000 C   0  0  0  0  0  0  0  0  0  0  0  0
    3.5724   -1.2375    0.0000 C   0  0  0  0  0  0  0  0  0  0  0  0
    2.8579   -1.6500    0.0000 N   0  0  0  0  0  0  0  0  0  0  0  0
    2.1434   -1.2375    0.0000 C   0  0  0  0  0  0  0  0  0  0  0  0
  1  2  1  0  0  0  0
  2  3  2  0  0  0  0
  2  4  2  0  0  0  0
  2  5  1  0  0  0  0
  5  6  2  0  0  0  0
  6  7  1  0  0  0  0
  7  8  2  0  0  0  0
  8  9  1  0  0  0  0
  9 10  2  0  0  0  0
 10 11  1  0  0  0  0
 11 12  2  0  0  0  0
 12 13  1  0  0  0  0
 13 14  2  0  0  0  0
  5 14  1  0  0  0  0
  9 14  1  0  0  0  0
M  END
>  <Catalog ID>
Z1269220427

>  <PlateID>
1198308-R-SPFL-10

>  <Well>
F10

>  <MW (desalted)>
207.249

>  <ClogP>
0.849

>  <HBD>
0

>  <TPSA>
47.030

>  <RotBonds>
1

$$$$

            

 10 11  0  0  0  0            999 V2000
    1.6689   -2.2748    0.0000 C   0  0  0  0  0  0  0  0  0  0  0  0
    0.8439   -2.2748    0.0000 C   0  0  0  0  0  0  0  0  0  0  0  0
    0.5890   -1.4901    0.0000 S   0  0  0  0  0  0  0  0  0  0  0  0
    1.2564   -1.0052    0.0000 C   0  0  0  0  0  0  0  0  0  0  0  0
    1.9239   -1.4901    0.0000 N   0  0  0  0  0  0  0  0  0  0  0  0
    1.2564   -0.1802    0.0000 C   0  0  0  0  0  0  0  0  0  0  0  0
    0.5890    0.3047    0.0000 C   0  0  0  0  0  0  0  0  0  0  0  0
    0.8439    1.0893    0.0000 C   0  0  0  0  0  0  0  0  0  0  0  0
    1.6689    1.0893    0.0000 N   0  0  0  0  0  0  0  0  0  0  0  0
    1.9239    0.3047    0.0000 N   0  0  0  0  0  0  0  0  0  0  0  0
  1  2  2  0  0  0  0
  2  3  1  0  0  0  0
  3  4  1  0  0  0  0
  4  5  2  0  0  0  0
  1  5  1  0  0  0  0
  4  6  1  0  0  0  0
  6  7  1  0  0  0  0
  7  8  2  0  0  0  0
  8  9  1  0  0  0  0
  9 10  1  0  0  0  0
  6 10  2  0  0  0  0
M  END
>  <Catalog ID>
Z1198150620

>  <PlateID>
1198308-R-SPFL-10

>  <Well>
F11

>  <MW (desalted)>
151.189

>  <ClogP>
1.069

>  <HBD>
1

>  <TPSA>
41.570

>  <RotBonds>
1

$$$$

            

 10 11  0  0  0  0            999 V2000
    0.4717   -0.9761    0.0000 C   0  0  0  0  0  0  0  0  0  0  0  0
    0.9566   -0.3087    0.0000 C   0  0  0  0  0  0  0  0  0  0  0  0
    1.7413   -0.5636    0.0000 C   0  0  0  0  0  0  0  0  0  0  0  0
    2.3863   -0.0492    0.0000 C   0  0  0  0  0  0  0  0  0  0  0  0
    3.1906   -0.2328    0.0000 N   0  0  0  0  0  0  0  0  0  0  0  0
    3.5485   -0.9761    0.0000 C   0  0  0  0  0  0  0  0  0  0  0  0
    3.1906   -1.7194    0.0000 C   0  0  0  0  0  0  0  0  0  0  0  0
    2.3863   -1.9030    0.0000 C   0  0  0  0  0  0  0  0  0  0  0  0
    1.7413   -1.3886    0.0000 N   0  0  0  0  0  0  0  0  0  0  0  0
    0.9566   -1.6436    0.0000 C   0  0  0  0  0  0  0  0  0  0  0  0
  1  2  1  0  0  0  0
  2  3  1  0  0  0  0
  3  4  1  0  0  0  0
  4  5  1  0  0  0  0
  5  6  1  0  0  0  0
  6  7  1  0  0  0  0
  7  8  1  0  0  0  0
  8  9  1  0  0  0  0
  3  9  1  0  0  0  0
  9 10  1  0  0  0  0
  1 10  1  0  0  0  0
M  END
>  <Catalog ID>
Z916962720

>  <PlateID>
1198308-R-SPFL-10

>  <Well>
G02

>  <MW (desalted)>
140.226

>  <ClogP>
0.326

>  <HBD>
1

>  <TPSA>
15.270

>  <RotBonds>
0

$$$$

            

 11 12  0  0  0  0            999 V2000
    0.3316   -2.4708    0.0000 C   0  0  0  0  0  0  0  0  0  0  0  0
   -0.2517   -1.8874    0.0000 C   0  0  0  0  0  0  0  0  0  0  0  0
    0.3316   -1.3041    0.0000 C   0  0  0  0  0  0  0  0  0  0  0  0
    0.9150   -1.8874    0.0000 C   0  0  0  0  0  0  0  0  0  0  0  0
    0.3316   -0.4791    0.0000 C   0  0  0  0  0  0  0  0  0  0  0  0
   -0.4117   -0.1211    0.0000 C   0  0  0  0  0  0  0  0  0  0  0  0
   -0.5953    0.6832    0.0000 N   0  0  0  0  0  0  0  0  0  0  0  0
   -0.0809    1.3282    0.0000 C   0  0  0  0  0  0  0  0  0  0  0  0
    0.7441    1.3282    0.0000 C   0  0  0  0  0  0  0  0  0  0  0  0
    1.2585    0.6832    0.0000 O   0  0  0  0  0  0  0  0  0  0  0  0
    1.0749   -0.1211    0.0000 C   0  0  0  0  0  0  0  0  0  0  0  0
  1  2  1  0  0  0  0
  2  3  1  0  0  0  0
  3  4  1  0  0  0  0
  1  4  1  0  0  0  0
  3  5  1  0  0  0  0
  5  6  1  0  0  0  0
  6  7  1  0  0  0  0
  7  8  1  0  0  0  0
  8  9  1  0  0  0  0
  9 10  1  0  0  0  0
 10 11  1  0  0  0  0
  5 11  1  0  0  0  0
M  END
>  <Catalog ID>
Z2046249022

>  <PlateID>
1198308-R-SPFL-10

>  <Well>
G03

>  <MW (desalted)>
155.237

>  <ClogP>
1.055

>  <HBD>
1

>  <TPSA>
21.260

>  <RotBonds>
1

$$$$

            

 15 14  0  0  0  0            999 V2000
    0.0000    0.0000    0.0000 Cl  0  0  0  0  0  0  0  0  0  0  0  0
    2.0036    0.0000    0.0000 Cl  0  0  0  0  0  0  0  0  0  0  0  0
   -1.8633   -4.0986    0.0000 C   0  0  0  0  0  0  0  0  0  0  0  0
   -1.0563   -3.9271    0.0000 C   0  0  0  0  0  0  0  0  0  0  0  0
   -0.5043   -4.5402    0.0000 C   0  0  0  0  0  0  0  0  0  0  0  0
   -0.8014   -3.1424    0.0000 N   0  0  0  0  0  0  0  0  0  0  0  0
   -1.2863   -2.4750    0.0000 N   0  0  0  0  0  0  0  0  0  0  0  0
   -0.8014   -1.8076    0.0000 C   0  0  0  0  0  0  0  0  0  0  0  0
   -0.0168   -2.0625    0.0000 C   0  0  0  0  0  0  0  0  0  0  0  0
    0.6977   -1.6500    0.0000 C   0  0  0  0  0  0  0  0  0  0  0  0
    1.4122   -2.0625    0.0000 C   0  0  0  0  0  0  0  0  0  0  0  0
    1.4122   -2.8875    0.0000 C   0  0  0  0  0  0  0  0  0  0  0  0
    2.1267   -3.3000    0.0000 N   0  0  0  0  0  0  0  0  0  0  0  0
    0.6977   -3.3000    0.0000 C   0  0  0  0  0  0  0  0  0  0  0  0
   -0.0168   -2.8875    0.0000 C   0  0  0  0  0  0  0  0  0  0  0  0
  3  4  1  0  0  0  0
  4  5  1  0  0  0  0
  4  6  1  0  0  0  0
  6  7  1  0  0  0  0
  7  8  2  0  0  0  0
  8  9  1  0  0  0  0
  9 10  1  0  0  0  0
 10 11  1  0  0  0  0
 11 12  1  0  0  0  0
 12 13  1  0  0  0  0
 12 14  1  0  0  0  0
 14 15  1  0  0  0  0
  9 15  2  0  0  0  0
  6 15  1  0  0  0  0
M  END
>  <Catalog ID>
Z1696823029

>  <PlateID>
1198308-R-SPFL-10

>  <Well>
G04

>  <MW (desalted)>
179.262

>  <ClogP>
0.370

>  <HBD>
1

>  <TPSA>
43.840

>  <RotBonds>
1

$$$$

            

 12 13  0  0  0  0            999 V2000
    0.3209   -0.3981    0.0000 O   0  0  0  0  0  0  0  0  0  0  0  0
    1.1055   -0.1432    0.0000 C   0  0  0  0  0  0  0  0  0  0  0  0
    1.7186   -0.6952    0.0000 O   0  0  0  0  0  0  0  0  0  0  0  0
    1.2771    0.6638    0.0000 C   0  0  0  0  0  0  0  0  0  0  0  0
    0.7250    1.2769    0.0000 C   0  0  0  0  0  0  0  0  0  0  0  0
    1.1375    1.9914    0.0000 C   0  0  0  0  0  0  0  0  0  0  0  0
    1.9445    1.8198    0.0000 N   0  0  0  0  0  0  0  0  0  0  0  0
    2.0307    0.9993    0.0000 N   0  0  0  0  0  0  0  0  0  0  0  0
    2.7452    0.5868    0.0000 C   0  0  0  0  0  0  0  0  0  0  0  0
    2.7452   -0.2382    0.0000 C   0  0  0  0  0  0  0  0  0  0  0  0
    3.1577   -0.9526    0.0000 C   0  0  0  0  0  0  0  0  0  0  0  0
    2.3327   -0.9526    0.0000 C   0  0  0  0  0  0  0  0  0  0  0  0
  1  2  1  0  0  0  0
  2  3  2  0  0  0  0
  2  4  1  0  0  0  0
  4  5  2  0  0  0  0
  5  6  1  0  0  0  0
  6  7  2  0  0  0  0
  7  8  1  0  0  0  0
  4  8  1  0  0  0  0
  8  9  1  0  0  0  0
  9 10  1  0  0  0  0
 10 11  1  0  0  0  0
 11 12  1  0  0  0  0
 10 12  1  0  0  0  0
M  END
>  <Catalog ID>
Z1230013303

>  <PlateID>
1198308-R-SPFL-10

>  <Well>
G05

>  <MW (desalted)>
166.177

>  <ClogP>
1.234

>  <HBD>
1

>  <TPSA>
55.120

>  <RotBonds>
3

$$$$

            

 11 11  0  0  0  0            999 V2000
   -0.7145    3.7125    0.0000 O   0  0  0  0  0  0  0  0  0  0  0  0
    0.0000    3.3000    0.0000 C   0  0  0  0  0  0  0  0  0  0  0  0
    0.7145    3.7125    0.0000 O   0  0  0  0  0  0  0  0  0  0  0  0
    0.0000    2.4750    0.0000 C   0  0  0  0  0  0  0  0  0  0  0  0
    0.7145    2.0625    0.0000 C   0  0  0  0  0  0  0  0  0  0  0  0
    0.7145    1.2375    0.0000 C   0  0  0  0  0  0  0  0  0  0  0  0
    1.4289    0.8250    0.0000 C   0  0  0  0  0  0  0  0  0  0  0  0
    1.4289   -0.0000    0.0000 C   0  0  0  0  0  0  0  0  0  0  0  0
    0.7145   -0.4125    0.0000 C   0  0  0  0  0  0  0  0  0  0  0  0
    0.0000    0.0000    0.0000 O   0  0  0  0  0  0  0  0  0  0  0  0
    0.0000    0.8250    0.0000 C   0  0  0  0  0  0  0  0  0  0  0  0
  1  2  1  0  0  0  0
  2  3  2  0  0  0  0
  2  4  1  0  0  0  0
  4  5  1  0  0  0  0
  5  6  1  0  0  0  0
  6  7  1  0  0  0  0
  7  8  1  0  0  0  0
  8  9  1  0  0  0  0
  9 10  1  0  0  0  0
 10 11  1  0  0  0  0
  6 11  1  0  0  0  0
M  END
>  <Catalog ID>
Z1154555237

>  <PlateID>
1198308-R-SPFL-10

>  <Well>
G06

>  <MW (desalted)>
158.195

>  <ClogP>
0.586

>  <HBD>
1

>  <TPSA>
46.530

>  <RotBonds>
3

$$$$

            

 11 12  0  0  0  0            999 V2000
   -0.3279   -0.8192    0.0000 N   0  0  0  0  0  0  0  0  0  0  0  0
    0.4474   -0.5371    0.0000 C   0  0  0  0  0  0  0  0  0  0  0  0
    1.0793   -1.0674    0.0000 C   0  0  0  0  0  0  0  0  0  0  0  0
    1.4918   -1.7818    0.0000 C   0  0  0  0  0  0  0  0  0  0  0  0
    0.6668   -1.7818    0.0000 C   0  0  0  0  0  0  0  0  0  0  0  0
    1.7113   -0.5371    0.0000 C   0  0  0  0  0  0  0  0  0  0  0  0
    1.5681    0.2754    0.0000 C   0  0  0  0  0  0  0  0  0  0  0  0
    2.2001    0.8057    0.0000 C   0  0  0  0  0  0  0  0  0  0  0  0
    2.9753    0.5235    0.0000 C   0  0  0  0  0  0  0  0  0  0  0  0
    3.1186   -0.2889    0.0000 C   0  0  0  0  0  0  0  0  0  0  0  0
    2.4866   -0.8192    0.0000 C   0  0  0  0  0  0  0  0  0  0  0  0
  1  2  1  0  0  0  0
  2  3  1  0  0  0  0
  3  4  1  0  0  0  0
  4  5  1  0  0  0  0
  3  5  1  0  0  0  0
  3  6  1  0  0  0  0
  6  7  2  0  0  0  0
  7  8  1  0  0  0  0
  8  9  2  0  0  0  0
  9 10  1  0  0  0  0
 10 11  2  0  0  0  0
  6 11  1  0  0  0  0
M  END
>  <Catalog ID>
Z217306544

>  <PlateID>
1198308-R-SPFL-10

>  <Well>
G07

>  <MW (desalted)>
147.217

>  <ClogP>
1.867

>  <HBD>
1

>  <TPSA>
26.020

>  <RotBonds>
2

$$$$

            

 11 12  0  0  0  0            999 V2000
    1.4289   -2.4750    0.0000 O   0  0  0  0  0  0  0  0  0  0  0  0
    1.4289   -1.6500    0.0000 C   0  0  0  0  0  0  0  0  0  0  0  0
    0.7145   -1.2375    0.0000 N   0  0  0  0  0  0  0  0  0  0  0  0
    0.7145   -0.4125    0.0000 C   0  0  0  0  0  0  0  0  0  0  0  0
    1.4289    0.0000    0.0000 N   0  0  0  0  0  0  0  0  0  0  0  0
    2.1434   -0.4125    0.0000 C   0  0  0  0  0  0  0  0  0  0  0  0
    2.8579    0.0000    0.0000 N   0  0  0  0  0  0  0  0  0  0  0  0
    3.5724   -0.4125    0.0000 C   0  0  0  0  0  0  0  0  0  0  0  0
    3.5724   -1.2375    0.0000 C   0  0  0  0  0  0  0  0  0  0  0  0
    2.8579   -1.6500    0.0000 C   0  0  0  0  0  0  0  0  0  0  0  0
    2.1434   -1.2375    0.0000 C   0  0  0  0  0  0  0  0  0  0  0  0
  1  2  2  0  0  0  0
  2  3  1  0  0  0  0
  3  4  1  0  0  0  0
  4  5  2  0  0  0  0
  5  6  1  0  0  0  0
  6  7  2  0  0  0  0
  7  8  1  0  0  0  0
  8  9  2  0  0  0  0
  9 10  1  0  0  0  0
 10 11  2  0  0  0  0
  2 11  1  0  0  0  0
  6 11  1  0  0  0  0
M  END
>  <Catalog ID>
Z227832770

>  <PlateID>
1198308-R-SPFL-10

>  <Well>
G08

>  <MW (desalted)>
147.134

>  <ClogP>
-0.680

>  <HBD>
1

>  <TPSA>
54.350

>  <RotBonds>
0

$$$$

            

 10 10  0  0  0  0            999 V2000
    0.1842    1.8695    0.0000 C   0  0  0  0  0  0  0  0  0  0  0  0
    0.7145    1.2375    0.0000 C   0  0  0  0  0  0  0  0  0  0  0  0
    1.4289    0.8250    0.0000 C   0  0  0  0  0  0  0  0  0  0  0  0
    1.4289   -0.0000    0.0000 C   0  0  0  0  0  0  0  0  0  0  0  0
    0.7145   -0.4125    0.0000 C   0  0  0  0  0  0  0  0  0  0  0  0
    0.0000    0.0000    0.0000 O   0  0  0  0  0  0  0  0  0  0  0  0
    0.0000    0.8250    0.0000 C   0  0  0  0  0  0  0  0  0  0  0  0
    1.2448    1.8695    0.0000 C   0  0  0  0  0  0  0  0  0  0  0  0
    0.9626    2.6447    0.0000 O   0  0  0  0  0  0  0  0  0  0  0  0
    2.0572    1.7262    0.0000 O   0  0  0  0  0  0  0  0  0  0  0  0
  1  2  1  0  0  0  0
  2  3  1  0  0  0  0
  3  4  1  0  0  0  0
  4  5  1  0  0  0  0
  5  6  1  0  0  0  0
  6  7  1  0  0  0  0
  2  7  1  0  0  0  0
  2  8  1  0  0  0  0
  8  9  2  0  0  0  0
  8 10  1  0  0  0  0
M  END
>  <Catalog ID>
Z1079130408

>  <PlateID>
1198308-R-SPFL-10

>  <Well>
G09

>  <MW (desalted)>
144.168

>  <ClogP>
0.606

>  <HBD>
1

>  <TPSA>
46.530

>  <RotBonds>
1

$$$$

            

 11 10  0  0  0  0            999 V2000
    0.0000    0.0000    0.0000 Cl  0  0  0  0  0  0  0  0  0  0  0  0
    3.8330    1.3306    0.0000 C   0  0  0  0  0  0  0  0  0  0  0  0
    3.8330    0.5056    0.0000 C   0  0  0  0  0  0  0  0  0  0  0  0
    4.5005    0.0207    0.0000 C   0  0  0  0  0  0  0  0  0  0  0  0
    4.2455   -0.7640    0.0000 N   0  0  0  0  0  0  0  0  0  0  0  0
    4.7304   -1.4314    0.0000 C   0  0  0  0  0  0  0  0  0  0  0  0
    3.4205   -0.7640    0.0000 N   0  0  0  0  0  0  0  0  0  0  0  0
    3.1656    0.0207    0.0000 C   0  0  0  0  0  0  0  0  0  0  0  0
    2.3810    0.2756    0.0000 C   0  0  0  0  0  0  0  0  0  0  0  0
    1.7679   -0.2764    0.0000 O   0  0  0  0  0  0  0  0  0  0  0  0
    2.2094    1.0826    0.0000 O   0  0  0  0  0  0  0  0  0  0  0  0
  2  3  1  0  0  0  0
  3  4  2  0  0  0  0
  4  5  1  0  0  0  0
  5  6  1  0  0  0  0
  5  7  1  0  0  0  0
  7  8  2  0  0  0  0
  3  8  1  0  0  0  0
  8  9  1  0  0  0  0
  9 10  2  0  0  0  0
  9 11  1  0  0  0  0
M  END
>  <Catalog ID>
Z2327226078

>  <PlateID>
1198308-R-SPFL-10

>  <Well>
G10

>  <MW (desalted)>
140.140

>  <ClogP>
0.230

>  <HBD>
1

>  <TPSA>
55.120

>  <RotBonds>
1

$$$$

            

 13 14  0  0  0  0            999 V2000
    0.7145   -2.8875    0.0000 O   0  0  0  0  0  0  0  0  0  0  0  0
    1.4289   -2.4750    0.0000 C   0  0  0  0  0  0  0  0  0  0  0  0
    2.1434   -2.8875    0.0000 O   0  0  0  0  0  0  0  0  0  0  0  0
    1.4289   -1.6500    0.0000 C   0  0  0  0  0  0  0  0  0  0  0  0
    0.7145   -1.2375    0.0000 C   0  0  0  0  0  0  0  0  0  0  0  0
    0.7145   -0.4125    0.0000 N   0  0  0  0  0  0  0  0  0  0  0  0
    1.4289    0.0000    0.0000 C   0  0  0  0  0  0  0  0  0  0  0  0
    2.1434   -0.4125    0.0000 C   0  0  0  0  0  0  0  0  0  0  0  0
    2.8579    0.0000    0.0000 C   0  0  0  0  0  0  0  0  0  0  0  0
    3.5724   -0.4125    0.0000 C   0  0  0  0  0  0  0  0  0  0  0  0
    3.5724   -1.2375    0.0000 C   0  0  0  0  0  0  0  0  0  0  0  0
    2.8579   -1.6500    0.0000 C   0  0  0  0  0  0  0  0  0  0  0  0
    2.1434   -1.2375    0.0000 C   0  0  0  0  0  0  0  0  0  0  0  0
  1  2  1  0  0  0  0
  2  3  2  0  0  0  0
  2  4  1  0  0  0  0
  4  5  2  0  0  0  0
  5  6  1  0  0  0  0
  6  7  2  0  0  0  0
  7  8  1  0  0  0  0
  8  9  2  0  0  0  0
  9 10  1  0  0  0  0
 10 11  2  0  0  0  0
 11 12  1  0  0  0  0
 12 13  2  0  0  0  0
  4 13  1  0  0  0  0
  8 13  1  0  0  0  0
M  END
>  <Catalog ID>
Z234893623

>  <PlateID>
1198308-R-SPFL-10

>  <Well>
G11

>  <MW (desalted)>
173.168

>  <ClogP>
1.973

>  <HBD>
1

>  <TPSA>
50.190

>  <RotBonds>
1

$$$$

            

 11 12  0  0  0  0            999 V2000
    0.0768   -2.3215    0.0000 N   0  0  0  0  0  0  0  0  0  0  0  0
    0.8838   -2.1500    0.0000 C   0  0  0  0  0  0  0  0  0  0  0  0
    1.1387   -1.3654    0.0000 C   0  0  0  0  0  0  0  0  0  0  0  0
    0.6538   -0.6979    0.0000 C   0  0  0  0  0  0  0  0  0  0  0  0
    1.1387   -0.0305    0.0000 C   0  0  0  0  0  0  0  0  0  0  0  0
    1.9233   -0.2854    0.0000 C   0  0  0  0  0  0  0  0  0  0  0  0
    2.6378    0.1271    0.0000 C   0  0  0  0  0  0  0  0  0  0  0  0
    3.3523   -0.2854    0.0000 C   0  0  0  0  0  0  0  0  0  0  0  0
    3.3523   -1.1104    0.0000 C   0  0  0  0  0  0  0  0  0  0  0  0
    2.6378   -1.5229    0.0000 C   0  0  0  0  0  0  0  0  0  0  0  0
    1.9233   -1.1104    0.0000 C   0  0  0  0  0  0  0  0  0  0  0  0
  1  2  1  0  0  0  0
  2  3  1  0  0  0  0
  3  4  1  0  0  0  0
  4  5  1  0  0  0  0
  5  6  1  0  0  0  0
  6  7  2  0  0  0  0
  7  8  1  0  0  0  0
  8  9  2  0  0  0  0
  9 10  1  0  0  0  0
 10 11  2  0  0  0  0
  3 11  1  0  0  0  0
  6 11  1  0  0  0  0
M  END
>  <Catalog ID>
Z415654944

>  <PlateID>
1198308-R-SPFL-10

>  <Well>
H02

>  <MW (desalted)>
147.217

>  <ClogP>
1.937

>  <HBD>
1

>  <TPSA>
26.020

>  <RotBonds>
1

$$$$

            

 12 12  0  0  0  0            999 V2000
    0.0000    0.0000    0.0000 Cl  0  0  0  0  0  0  0  0  0  0  0  0
    2.3571    0.1061    0.0000 N   0  0  0  0  0  0  0  0  0  0  0  0
    2.9405   -0.4773    0.0000 C   0  0  0  0  0  0  0  0  0  0  0  0
    3.5239   -1.0607    0.0000 C   0  0  0  0  0  0  0  0  0  0  0  0
    2.9405   -1.6440    0.0000 C   0  0  0  0  0  0  0  0  0  0  0  0
    2.3571   -1.0607    0.0000 C   0  0  0  0  0  0  0  0  0  0  0  0
    3.5239    0.1061    0.0000 C   0  0  0  0  0  0  0  0  0  0  0  0
    3.3103    0.9030    0.0000 C   0  0  0  0  0  0  0  0  0  0  0  0
    3.8937    1.4863    0.0000 C   0  0  0  0  0  0  0  0  0  0  0  0
    4.6906    1.2728    0.0000 C   0  0  0  0  0  0  0  0  0  0  0  0
    4.9041    0.4759    0.0000 C   0  0  0  0  0  0  0  0  0  0  0  0
    4.3208   -0.1075    0.0000 C   0  0  0  0  0  0  0  0  0  0  0  0
  2  3  1  0  0  0  0
  3  4  1  0  0  0  0
  4  5  1  0  0  0  0
  5  6  1  0  0  0  0
  3  6  1  0  0  0  0
  3  7  1  0  0  0  0
  7  8  2  0  0  0  0
  8  9  1  0  0  0  0
  9 10  2  0  0  0  0
 10 11  1  0  0  0  0
 11 12  2  0  0  0  0
  7 12  1  0  0  0  0
M  END
>  <Catalog ID>
Z164707416

>  <PlateID>
1198308-R-SPFL-10

>  <Well>
H03

>  <MW (desalted)>
147.217

>  <ClogP>
1.997

>  <HBD>
1

>  <TPSA>
26.020

>  <RotBonds>
1

$$$$

            

 14 15  0  0  0  0            999 V2000
    2.1434   -0.4125    0.0000 N   0  0  0  0  0  0  0  0  0  0  0  0
    2.1434   -1.2375    0.0000 C   0  0  0  0  0  0  0  0  0  0  0  0
    2.8579   -1.6500    0.0000 C   0  0  0  0  0  0  0  0  0  0  0  0
    2.8579   -2.4750    0.0000 C   0  0  0  0  0  0  0  0  0  0  0  0
    2.1434   -2.8875    0.0000 N   0  0  0  0  0  0  0  0  0  0  0  0
    2.1434   -3.7125    0.0000 C   0  0  0  0  0  0  0  0  0  0  0  0
    1.4289   -4.1250    0.0000 C   0  0  0  0  0  0  0  0  0  0  0  0
    1.4289   -4.9500    0.0000 C   0  0  0  0  0  0  0  0  0  0  0  0
    0.7145   -5.3625    0.0000 C   0  0  0  0  0  0  0  0  0  0  0  0
   -0.0000   -4.9500    0.0000 C   0  0  0  0  0  0  0  0  0  0  0  0
    0.0000   -4.1250    0.0000 C   0  0  0  0  0  0  0  0  0  0  0  0
    0.7145   -3.7125    0.0000 C   0  0  0  0  0  0  0  0  0  0  0  0
    1.4289   -2.4750    0.0000 C   0  0  0  0  0  0  0  0  0  0  0  0
    1.4289   -1.6500    0.0000 C   0  0  0  0  0  0  0  0  0  0  0  0
  1  2  1  0  0  0  0
  2  3  1  0  0  0  0
  3  4  1  0  0  0  0
  4  5  1  0  0  0  0
  5  6  1  0  0  0  0
  6  7  1  0  0  0  0
  7  8  1  0  0  0  0
  8  9  1  0  0  0  0
  9 10  1  0  0  0  0
 10 11  1  0  0  0  0
 11 12  1  0  0  0  0
  7 12  1  0  0  0  0
  5 13  1  0  0  0  0
 13 14  1  0  0  0  0
  2 14  1  0  0  0  0
M  END
>  <Catalog ID>
Z295382790

>  <PlateID>
1198308-R-SPFL-10

>  <Well>
H04

>  <MW (desalted)>
196.332

>  <ClogP>
1.874

>  <HBD>
1

>  <TPSA>
29.260

>  <RotBonds>
2

$$$$

            

 13 14  0  0  0  0            999 V2000
    1.4289   -0.0000    0.0000 O   0  0  0  0  0  0  0  0  0  0  0  0
    0.7145   -0.4125    0.0000 C   0  0  0  0  0  0  0  0  0  0  0  0
    0.7145   -1.2375    0.0000 C   0  0  0  0  0  0  0  0  0  0  0  0
    1.3819   -1.7224    0.0000 N   0  0  0  0  0  0  0  0  0  0  0  0
    1.1270   -2.5070    0.0000 C   0  0  0  0  0  0  0  0  0  0  0  0
    0.3020   -2.5070    0.0000 C   0  0  0  0  0  0  0  0  0  0  0  0
    0.0470   -1.7224    0.0000 O   0  0  0  0  0  0  0  0  0  0  0  0
   -0.1830   -3.1745    0.0000 C   0  0  0  0  0  0  0  0  0  0  0  0
    0.1526   -3.9282    0.0000 C   0  0  0  0  0  0  0  0  0  0  0  0
   -0.3323   -4.5956    0.0000 C   0  0  0  0  0  0  0  0  0  0  0  0
   -1.1528   -4.5094    0.0000 C   0  0  0  0  0  0  0  0  0  0  0  0
   -1.4884   -3.7557    0.0000 C   0  0  0  0  0  0  0  0  0  0  0  0
   -1.0034   -3.0882    0.0000 C   0  0  0  0  0  0  0  0  0  0  0  0
  1  2  1  0  0  0  0
  2  3  1  0  0  0  0
  3  4  2  0  0  0  0
  4  5  1  0  0  0  0
  5  6  2  0  0  0  0
  6  7  1  0  0  0  0
  3  7  1  0  0  0  0
  6  8  1  0  0  0  0
  8  9  2  0  0  0  0
  9 10  1  0  0  0  0
 10 11  2  0  0  0  0
 11 12  1  0  0  0  0
 12 13  2  0  0  0  0
  8 13  1  0  0  0  0
M  END
>  <Catalog ID>
Z431953252

>  <PlateID>
1198308-R-SPFL-10

>  <Well>
H05

>  <MW (desalted)>
175.184

>  <ClogP>
0.881

>  <HBD>
1

>  <TPSA>
46.260

>  <RotBonds>
2

$$$$

            

 12 12  0  0  0  0            999 V2000
    0.0000    2.4750    0.0000 O   0  0  0  0  0  0  0  0  0  0  0  0
    0.7145    2.0625    0.0000 C   0  0  0  0  0  0  0  0  0  0  0  0
    1.4289    2.4750    0.0000 O   0  0  0  0  0  0  0  0  0  0  0  0
    0.7145    1.2375    0.0000 C   0  0  0  0  0  0  0  0  0  0  0  0
    1.4289    0.8250    0.0000 C   0  0  0  0  0  0  0  0  0  0  0  0
    1.4289   -0.0000    0.0000 C   0  0  0  0  0  0  0  0  0  0  0  0
    0.7145   -0.4125    0.0000 C   0  0  0  0  0  0  0  0  0  0  0  0
    0.0000    0.0000    0.0000 N   0  0  0  0  0  0  0  0  0  0  0  0
    0.0000    0.8250    0.0000 C   0  0  0  0  0  0  0  0  0  0  0  0
    0.7145   -1.2375    0.0000 C   0  0  0  0  0  0  0  0  0  0  0  0
    1.4289   -1.6500    0.0000 F   0  0  0  0  0  0  0  0  0  0  0  0
   -0.0000   -1.6500    0.0000 F   0  0  0  0  0  0  0  0  0  0  0  0
  1  2  1  0  0  0  0
  2  3  2  0  0  0  0
  2  4  1  0  0  0  0
  4  5  2  0  0  0  0
  5  6  1  0  0  0  0
  6  7  2  0  0  0  0
  7  8  1  0  0  0  0
  8  9  2  0  0  0  0
  4  9  1  0  0  0  0
  7 10  1  0  0  0  0
 10 11  1  0  0  0  0
 10 12  1  0  0  0  0
M  END
>  <Catalog ID>
Z1255375051

>  <PlateID>
1198308-R-SPFL-10

>  <Well>
H06

>  <MW (desalted)>
173.117

>  <ClogP>
0.994

>  <HBD>
1

>  <TPSA>
50.190

>  <RotBonds>
2

$$$$

            

 11 11  0  0  0  0            999 V2000
    1.4289    2.4750    0.0000 C   0  0  0  0  0  0  0  0  0  0  0  0
    0.7145    2.0625    0.0000 O   0  0  0  0  0  0  0  0  0  0  0  0
    0.7145    1.2375    0.0000 C   0  0  0  0  0  0  0  0  0  0  0  0
    1.4289    0.8250    0.0000 C   0  0  0  0  0  0  0  0  0  0  0  0
    1.4289   -0.0000    0.0000 C   0  0  0  0  0  0  0  0  0  0  0  0
    0.7145   -0.4125    0.0000 C   0  0  0  0  0  0  0  0  0  0  0  0
    0.0000    0.0000    0.0000 C   0  0  0  0  0  0  0  0  0  0  0  0
   -0.7145   -0.4125    0.0000 C   0  0  0  0  0  0  0  0  0  0  0  0
   -1.4289    0.0000    0.0000 C   0  0  0  0  0  0  0  0  0  0  0  0
   -2.1434   -0.4125    0.0000 N   0  0  0  0  0  0  0  0  0  0  0  0
    0.0000    0.8250    0.0000 C   0  0  0  0  0  0  0  0  0  0  0  0
  1  2  1  0  0  0  0
  2  3  1  0  0  0  0
  3  4  2  0  0  0  0
  4  5  1  0  0  0  0
  5  6  2  0  0  0  0
  6  7  1  0  0  0  0
  7  8  1  0  0  0  0
  8  9  1  0  0  0  0
  9 10  1  0  0  0  0
  7 11  2  0  0  0  0
  3 11  1  0  0  0  0
M  END
>  <Catalog ID>
Z285143778

>  <PlateID>
1198308-R-SPFL-10

>  <Well>
H07

>  <MW (desalted)>
151.206

>  <ClogP>
1.352

>  <HBD>
1

>  <TPSA>
35.250

>  <RotBonds>
3

$$$$

            

 12 11  0  0  0  0            999 V2000
    0.0000    0.0000    0.0000 Cl  0  0  0  0  0  0  0  0  0  0  0  0
    4.9447    1.1816    0.0000 C   0  0  0  0  0  0  0  0  0  0  0  0
    4.4144    0.5496    0.0000 N   0  0  0  0  0  0  0  0  0  0  0  0
    3.6019    0.6928    0.0000 C   0  0  0  0  0  0  0  0  0  0  0  0
    3.3197    1.4681    0.0000 O   0  0  0  0  0  0  0  0  0  0  0  0
    3.0716    0.0609    0.0000 C   0  0  0  0  0  0  0  0  0  0  0  0
    2.5413    0.6928    0.0000 N   0  0  0  0  0  0  0  0  0  0  0  0
    3.7861   -0.3516    0.0000 C   0  0  0  0  0  0  0  0  0  0  0  0
    3.7861   -1.1766    0.0000 C   0  0  0  0  0  0  0  0  0  0  0  0
    3.0716   -1.5891    0.0000 C   0  0  0  0  0  0  0  0  0  0  0  0
    2.3571   -1.1766    0.0000 C   0  0  0  0  0  0  0  0  0  0  0  0
    2.3571   -0.3516    0.0000 C   0  0  0  0  0  0  0  0  0  0  0  0
  2  3  1  0  0  0  0
  3  4  1  0  0  0  0
  4  5  2  0  0  0  0
  4  6  1  0  0  0  0
  6  7  1  0  0  0  0
  6  8  1  0  0  0  0
  8  9  1  0  0  0  0
  9 10  1  0  0  0  0
 10 11  1  0  0  0  0
 11 12  1  0  0  0  0
  6 12  1  0  0  0  0
M  END
>  <Catalog ID>
Z1162448836

>  <PlateID>
1198308-R-SPFL-10

>  <Well>
H08

>  <MW (desalted)>
156.225

>  <ClogP>
0.326

>  <HBD>
2

>  <TPSA>
55.120

>  <RotBonds>
1

$$$$

            

 14 15  0  0  0  0            999 V2000
    3.2789    2.8875    0.0000 F   0  0  0  0  0  0  0  0  0  0  0  0
    3.2789    2.0625    0.0000 C   0  0  0  0  0  0  0  0  0  0  0  0
    2.4539    2.0625    0.0000 F   0  0  0  0  0  0  0  0  0  0  0  0
    4.1039    2.0625    0.0000 F   0  0  0  0  0  0  0  0  0  0  0  0
    3.2789    1.2375    0.0000 C   0  0  0  0  0  0  0  0  0  0  0  0
    3.9934    0.8250    0.0000 C   0  0  0  0  0  0  0  0  0  0  0  0
    3.9934    0.0000    0.0000 C   0  0  0  0  0  0  0  0  0  0  0  0
    4.7079   -0.4125    0.0000 O   0  0  0  0  0  0  0  0  0  0  0  0
    3.2789   -0.4125    0.0000 N   0  0  0  0  0  0  0  0  0  0  0  0
    2.5645    0.0000    0.0000 C   0  0  0  0  0  0  0  0  0  0  0  0
    1.7798   -0.2549    0.0000 C   0  0  0  0  0  0  0  0  0  0  0  0
    1.2949    0.4125    0.0000 C   0  0  0  0  0  0  0  0  0  0  0  0
    1.7798    1.0799    0.0000 C   0  0  0  0  0  0  0  0  0  0  0  0
    2.5645    0.8250    0.0000 C   0  0  0  0  0  0  0  0  0  0  0  0
  1  2  1  0  0  0  0
  2  3  1  0  0  0  0
  2  4  1  0  0  0  0
  2  5  1  0  0  0  0
  5  6  2  0  0  0  0
  6  7  1  0  0  0  0
  7  8  2  0  0  0  0
  7  9  1  0  0  0  0
  9 10  1  0  0  0  0
 10 11  1  0  0  0  0
 11 12  1  0  0  0  0
 12 13  1  0  0  0  0
 13 14  1  0  0  0  0
 10 14  2  0  0  0  0
  5 14  1  0  0  0  0
M  END
>  <Catalog ID>
Z1509276503

>  <PlateID>
1198308-R-SPFL-10

>  <Well>
H09

>  <MW (desalted)>
203.161

>  <ClogP>
1.667

>  <HBD>
1

>  <TPSA>
29.100

>  <RotBonds>
1

$$$$

            

 11 12  0  0  0  0            999 V2000
    2.0932    5.5553    0.0000 C   0  0  0  0  0  0  0  0  0  0  0  0
    1.9641    4.7405    0.0000 C   0  0  0  0  0  0  0  0  0  0  0  0
    2.5475    4.1571    0.0000 C   0  0  0  0  0  0  0  0  0  0  0  0
    2.1729    3.4220    0.0000 S   0  0  0  0  0  0  0  0  0  0  0  0
    1.3581    3.5511    0.0000 C   0  0  0  0  0  0  0  0  0  0  0  0
    1.2290    4.3659    0.0000 N   0  0  0  0  0  0  0  0  0  0  0  0
    0.7747    2.9677    0.0000 C   0  0  0  0  0  0  0  0  0  0  0  0
    0.1914    3.5511    0.0000 N   0  0  0  0  0  0  0  0  0  0  0  0
    1.3581    2.3843    0.0000 C   0  0  0  0  0  0  0  0  0  0  0  0
    0.7747    1.8010    0.0000 C   0  0  0  0  0  0  0  0  0  0  0  0
    0.1914    2.3843    0.0000 C   0  0  0  0  0  0  0  0  0  0  0  0
  1  2  1  0  0  0  0
  2  3  2  0  0  0  0
  3  4  1  0  0  0  0
  4  5  1  0  0  0  0
  5  6  2  0  0  0  0
  2  6  1  0  0  0  0
  5  7  1  0  0  0  0
  7  8  1  0  0  0  0
  7  9  1  0  0  0  0
  9 10  1  0  0  0  0
 10 11  1  0  0  0  0
  7 11  1  0  0  0  0
M  END
>  <Catalog ID>
Z803086172

>  <PlateID>
1198308-R-SPFL-10

>  <Well>
H10

>  <MW (desalted)>
168.259

>  <ClogP>
0.840

>  <HBD>
1

>  <TPSA>
38.910

>  <RotBonds>
1

$$$$

            

 12 13  0  0  0  0            999 V2000
   -0.1781   -3.1062    0.0000 O   0  0  0  0  0  0  0  0  0  0  0  0
    0.0768   -2.3215    0.0000 C   0  0  0  0  0  0  0  0  0  0  0  0
    0.8838   -2.1500    0.0000 C   0  0  0  0  0  0  0  0  0  0  0  0
    1.1387   -1.3654    0.0000 N   0  0  0  0  0  0  0  0  0  0  0  0
    0.6538   -0.6979    0.0000 C   0  0  0  0  0  0  0  0  0  0  0  0
    1.1387   -0.0305    0.0000 C   0  0  0  0  0  0  0  0  0  0  0  0
    1.9233   -0.2854    0.0000 C   0  0  0  0  0  0  0  0  0  0  0  0
    2.6378    0.1271    0.0000 C   0  0  0  0  0  0  0  0  0  0  0  0
    3.3523   -0.2854    0.0000 C   0  0  0  0  0  0  0  0  0  0  0  0
    3.3523   -1.1104    0.0000 C   0  0  0  0  0  0  0  0  0  0  0  0
    2.6378   -1.5229    0.0000 C   0  0  0  0  0  0  0  0  0  0  0  0
    1.9233   -1.1104    0.0000 C   0  0  0  0  0  0  0  0  0  0  0  0
  1  2  1  0  0  0  0
  2  3  1  0  0  0  0
  3  4  1  0  0  0  0
  4  5  1  0  0  0  0
  5  6  1  0  0  0  0
  6  7  1  0  0  0  0
  7  8  2  0  0  0  0
  8  9  1  0  0  0  0
  9 10  2  0  0  0  0
 10 11  1  0  0  0  0
 11 12  2  0  0  0  0
  4 12  1  0  0  0  0
  7 12  1  0  0  0  0
M  END
>  <Catalog ID>
Z425793930

>  <PlateID>
1198308-R-SPFL-10

>  <Well>
H11

>  <MW (desalted)>
163.216

>  <ClogP>
1.739

>  <HBD>
1

>  <TPSA>
23.470

>  <RotBonds>
2

$$$$

            

 13 13  0  0  0  0            999 V2000
    0.0000    0.0000    0.0000 Cl  0  0  0  0  0  0  0  0  0  0  0  0
    4.5600    2.3509    0.0000 C   0  0  0  0  0  0  0  0  0  0  0  0
    4.5600    1.5259    0.0000 C   0  0  0  0  0  0  0  0  0  0  0  0
    5.2274    1.0409    0.0000 N   0  0  0  0  0  0  0  0  0  0  0  0
    4.9725    0.2563    0.0000 O   0  0  0  0  0  0  0  0  0  0  0  0
    4.1475    0.2563    0.0000 C   0  0  0  0  0  0  0  0  0  0  0  0
    3.8925    1.0409    0.0000 N   0  0  0  0  0  0  0  0  0  0  0  0
    3.6625   -0.4111    0.0000 C   0  0  0  0  0  0  0  0  0  0  0  0
    3.9981   -1.1648    0.0000 C   0  0  0  0  0  0  0  0  0  0  0  0
    3.5132   -1.8322    0.0000 C   0  0  0  0  0  0  0  0  0  0  0  0
    2.6927   -1.7460    0.0000 N   0  0  0  0  0  0  0  0  0  0  0  0
    2.3571   -0.9923    0.0000 C   0  0  0  0  0  0  0  0  0  0  0  0
    2.8421   -0.3249    0.0000 C   0  0  0  0  0  0  0  0  0  0  0  0
  2  3  1  0  0  0  0
  3  4  2  0  0  0  0
  4  5  1  0  0  0  0
  5  6  1  0  0  0  0
  6  7  2  0  0  0  0
  3  7  1  0  0  0  0
  6  8  1  0  0  0  0
  8  9  1  0  0  0  0
  9 10  1  0  0  0  0
 10 11  1  0  0  0  0
 11 12  1  0  0  0  0
 12 13  1  0  0  0  0
  8 13  1  0  0  0  0
M  END
>  <Catalog ID>
Z744754632

>  <PlateID>
1198308-R-SPFL-11

>  <Well>
A02

>  <MW (desalted)>
167.208

>  <ClogP>
-0.266

>  <HBD>
1

>  <TPSA>
50.950

>  <RotBonds>
1

$$$$

            

 11 12  0  0  0  0            999 V2000
    0.3020   -2.5070    0.0000 C   0  0  0  0  0  0  0  0  0  0  0  0
    0.0470   -1.7224    0.0000 C   0  0  0  0  0  0  0  0  0  0  0  0
    0.7145   -1.2375    0.0000 C   0  0  0  0  0  0  0  0  0  0  0  0
    1.3819   -1.7224    0.0000 N   0  0  0  0  0  0  0  0  0  0  0  0
    1.1270   -2.5070    0.0000 N   0  0  0  0  0  0  0  0  0  0  0  0
    0.7145   -0.4125    0.0000 C   0  0  0  0  0  0  0  0  0  0  0  0
    0.0000    0.0000    0.0000 C   0  0  0  0  0  0  0  0  0  0  0  0
    0.0000    0.8250    0.0000 C   0  0  0  0  0  0  0  0  0  0  0  0
    0.7145    1.2375    0.0000 C   0  0  0  0  0  0  0  0  0  0  0  0
    1.4289    0.8250    0.0000 N   0  0  0  0  0  0  0  0  0  0  0  0
    1.4289    0.0000    0.0000 C   0  0  0  0  0  0  0  0  0  0  0  0
  1  2  1  0  0  0  0
  2  3  2  0  0  0  0
  3  4  1  0  0  0  0
  4  5  1  0  0  0  0
  1  5  2  0  0  0  0
  3  6  1  0  0  0  0
  6  7  2  0  0  0  0
  7  8  1  0  0  0  0
  8  9  2  0  0  0  0
  9 10  1  0  0  0  0
 10 11  2  0  0  0  0
  6 11  1  0  0  0  0
M  END
>  <Catalog ID>
Z234895117

>  <PlateID>
1198308-R-SPFL-11

>  <Well>
A03

>  <MW (desalted)>
145.161

>  <ClogP>
1.037

>  <HBD>
1

>  <TPSA>
41.570

>  <RotBonds>
1

$$$$

            

 12 12  0  0  0  0            999 V2000
    1.2822    2.3518    0.0000 N   0  0  0  0  0  0  0  0  0  0  0  0
    0.5678    1.9393    0.0000 C   0  0  0  0  0  0  0  0  0  0  0  0
    0.5678    1.1143    0.0000 C   0  0  0  0  0  0  0  0  0  0  0  0
    1.2352    0.6294    0.0000 C   0  0  0  0  0  0  0  0  0  0  0  0
    0.9803   -0.1553    0.0000 C   0  0  0  0  0  0  0  0  0  0  0  0
    0.1553   -0.1553    0.0000 N   0  0  0  0  0  0  0  0  0  0  0  0
   -0.3297   -0.8227    0.0000 C   0  0  0  0  0  0  0  0  0  0  0  0
    0.0059   -1.5764    0.0000 C   0  0  0  0  0  0  0  0  0  0  0  0
    0.3415   -2.3300    0.0000 F   0  0  0  0  0  0  0  0  0  0  0  0
   -0.7478   -1.9119    0.0000 F   0  0  0  0  0  0  0  0  0  0  0  0
    0.7596   -1.2408    0.0000 F   0  0  0  0  0  0  0  0  0  0  0  0
   -0.0997    0.6294    0.0000 C   0  0  0  0  0  0  0  0  0  0  0  0
  1  2  1  0  0  0  0
  2  3  1  0  0  0  0
  3  4  1  0  0  0  0
  4  5  1  0  0  0  0
  5  6  1  0  0  0  0
  6  7  1  0  0  0  0
  7  8  1  0  0  0  0
  8  9  1  0  0  0  0
  8 10  1  0  0  0  0
  8 11  1  0  0  0  0
  6 12  1  0  0  0  0
  3 12  1  0  0  0  0
M  END
>  <Catalog ID>
Z317027126

>  <PlateID>
1198308-R-SPFL-11

>  <Well>
A04

>  <MW (desalted)>
182.187

>  <ClogP>
0.077

>  <HBD>
1

>  <TPSA>
29.260

>  <RotBonds>
3

$$$$

            

 11 11  0  0  0  0            999 V2000
    0.0000    3.3000    0.0000 C   0  0  0  0  0  0  0  0  0  0  0  0
    0.0000    2.4750    0.0000 O   0  0  0  0  0  0  0  0  0  0  0  0
    0.7145    2.0625    0.0000 C   0  0  0  0  0  0  0  0  0  0  0  0
    0.7145    1.2375    0.0000 C   0  0  0  0  0  0  0  0  0  0  0  0
    1.4289    0.8250    0.0000 C   0  0  0  0  0  0  0  0  0  0  0  0
    1.4289   -0.0000    0.0000 C   0  0  0  0  0  0  0  0  0  0  0  0
    0.7145   -0.4125    0.0000 C   0  0  0  0  0  0  0  0  0  0  0  0
    0.7145   -1.2375    0.0000 C   0  0  0  0  0  0  0  0  0  0  0  0
    1.4289   -1.6500    0.0000 O   0  0  0  0  0  0  0  0  0  0  0  0
    0.0000    0.0000    0.0000 C   0  0  0  0  0  0  0  0  0  0  0  0
    0.0000    0.8250    0.0000 C   0  0  0  0  0  0  0  0  0  0  0  0
  1  2  1  0  0  0  0
  2  3  1  0  0  0  0
  3  4  1  0  0  0  0
  4  5  2  0  0  0  0
  5  6  1  0  0  0  0
  6  7  2  0  0  0  0
  7  8  1  0  0  0  0
  8  9  1  0  0  0  0
  7 10  1  0  0  0  0
 10 11  2  0  0  0  0
  4 11  1  0  0  0  0
M  END
>  <Catalog ID>
Z1255394253

>  <PlateID>
1198308-R-SPFL-11

>  <Well>
A05

>  <MW (desalted)>
152.190

>  <ClogP>
0.902

>  <HBD>
1

>  <TPSA>
29.460

>  <RotBonds>
3

$$$$

            

 10 10  0  0  0  0            999 V2000
    1.2822    2.3518    0.0000 C   0  0  0  0  0  0  0  0  0  0  0  0
    0.5678    1.9393    0.0000 C   0  0  0  0  0  0  0  0  0  0  0  0
   -0.1467    2.3518    0.0000 C   0  0  0  0  0  0  0  0  0  0  0  0
   -0.1467    3.1768    0.0000 O   0  0  0  0  0  0  0  0  0  0  0  0
   -0.8612    1.9393    0.0000 O   0  0  0  0  0  0  0  0  0  0  0  0
    0.5678    1.1143    0.0000 N   0  0  0  0  0  0  0  0  0  0  0  0
    1.2352    0.6294    0.0000 C   0  0  0  0  0  0  0  0  0  0  0  0
    0.9803   -0.1553    0.0000 C   0  0  0  0  0  0  0  0  0  0  0  0
    0.1553   -0.1553    0.0000 C   0  0  0  0  0  0  0  0  0  0  0  0
   -0.0997    0.6294    0.0000 N   0  0  0  0  0  0  0  0  0  0  0  0
  1  2  1  0  0  0  0
  2  3  1  0  0  0  0
  3  4  2  0  0  0  0
  3  5  1  0  0  0  0
  2  6  1  0  0  0  0
  6  7  1  0  0  0  0
  7  8  2  0  0  0  0
  8  9  1  0  0  0  0
  9 10  2  0  0  0  0
  6 10  1  0  0  0  0
M  END
>  <Catalog ID>
Z240085352

>  <PlateID>
1198308-R-SPFL-11

>  <Well>
A06

>  <MW (desalted)>
140.140

>  <ClogP>
0.170

>  <HBD>
1

>  <TPSA>
55.120

>  <RotBonds>
2

$$$$

            

 10 10  0  0  0  0            999 V2000
    0.0000    2.4750    0.0000 O   0  0  0  0  0  0  0  0  0  0  0  0
    0.7145    2.0625    0.0000 C   0  0  0  0  0  0  0  0  0  0  0  0
    1.4289    2.4750    0.0000 O   0  0  0  0  0  0  0  0  0  0  0  0
    0.7145    1.2375    0.0000 C   0  0  0  0  0  0  0  0  0  0  0  0
    1.4289    0.8250    0.0000 N   0  0  0  0  0  0  0  0  0  0  0  0
    1.4289   -0.0000    0.0000 C   0  0  0  0  0  0  0  0  0  0  0  0
    0.7145   -0.4125    0.0000 C   0  0  0  0  0  0  0  0  0  0  0  0
    0.0000    0.0000    0.0000 C   0  0  0  0  0  0  0  0  0  0  0  0
    0.0000    0.8250    0.0000 C   0  0  0  0  0  0  0  0  0  0  0  0
   -0.7145    1.2375    0.0000 Cl  0  0  0  0  0  0  0  0  0  0  0  0
  1  2  1  0  0  0  0
  2  3  2  0  0  0  0
  2  4  1  0  0  0  0
  4  5  2  0  0  0  0
  5  6  1  0  0  0  0
  6  7  2  0  0  0  0
  7  8  1  0  0  0  0
  8  9  2  0  0  0  0
  4  9  1  0  0  0  0
  9 10  1  0  0  0  0
M  END
>  <Catalog ID>
Z1203161828

>  <PlateID>
1198308-R-SPFL-11

>  <Well>
A07

>  <MW (desalted)>
157.554

>  <ClogP>
1.155

>  <HBD>
1

>  <TPSA>
50.190

>  <RotBonds>
1

$$$$

            

 11 11  0  0  0  0            999 V2000
    0.0000    2.4750    0.0000 N   0  0  0  0  0  0  0  0  0  0  0  0
    0.7145    2.0625    0.0000 C   0  0  0  0  0  0  0  0  0  0  0  0
    1.4289    2.4750    0.0000 O   0  0  0  0  0  0  0  0  0  0  0  0
    0.7145    1.2375    0.0000 C   0  0  0  0  0  0  0  0  0  0  0  0
    1.4289    0.8250    0.0000 C   0  0  0  0  0  0  0  0  0  0  0  0
    2.1434    1.2375    0.0000 F   0  0  0  0  0  0  0  0  0  0  0  0
    1.4289   -0.0000    0.0000 C   0  0  0  0  0  0  0  0  0  0  0  0
    0.7145   -0.4125    0.0000 C   0  0  0  0  0  0  0  0  0  0  0  0
    0.0000    0.0000    0.0000 C   0  0  0  0  0  0  0  0  0  0  0  0
    0.0000    0.8250    0.0000 C   0  0  0  0  0  0  0  0  0  0  0  0
   -0.7145    1.2375    0.0000 F   0  0  0  0  0  0  0  0  0  0  0  0
  1  2  1  0  0  0  0
  2  3  2  0  0  0  0
  2  4  1  0  0  0  0
  4  5  2  0  0  0  0
  5  6  1  0  0  0  0
  5  7  1  0  0  0  0
  7  8  2  0  0  0  0
  8  9  1  0  0  0  0
  9 10  2  0  0  0  0
  4 10  1  0  0  0  0
 10 11  1  0  0  0  0
M  END
>  <Catalog ID>
Z104476138

>  <PlateID>
1198308-R-SPFL-11

>  <Well>
A08

>  <MW (desalted)>
157.118

>  <ClogP>
0.348

>  <HBD>
1

>  <TPSA>
43.090

>  <RotBonds>
1

$$$$

            

 11 11  0  0  0  0            999 V2000
    1.2822    2.3518    0.0000 O   0  0  0  0  0  0  0  0  0  0  0  0
    0.5678    1.9393    0.0000 C   0  0  0  0  0  0  0  0  0  0  0  0
   -0.1467    2.3518    0.0000 O   0  0  0  0  0  0  0  0  0  0  0  0
    0.5678    1.1143    0.0000 C   0  0  0  0  0  0  0  0  0  0  0  0
    1.2352    0.6294    0.0000 C   0  0  0  0  0  0  0  0  0  0  0  0
    0.9803   -0.1553    0.0000 C   0  0  0  0  0  0  0  0  0  0  0  0
    0.1553   -0.1553    0.0000 N   0  0  0  0  0  0  0  0  0  0  0  0
   -0.0997    0.6294    0.0000 N   0  0  0  0  0  0  0  0  0  0  0  0
   -0.8843    0.8843    0.0000 C   0  0  0  0  0  0  0  0  0  0  0  0
   -1.4974    0.3323    0.0000 F   0  0  0  0  0  0  0  0  0  0  0  0
   -1.0558    1.6913    0.0000 F   0  0  0  0  0  0  0  0  0  0  0  0
  1  2  1  0  0  0  0
  2  3  2  0  0  0  0
  2  4  1  0  0  0  0
  4  5  2  0  0  0  0
  5  6  1  0  0  0  0
  6  7  2  0  0  0  0
  7  8  1  0  0  0  0
  4  8  1  0  0  0  0
  8  9  1  0  0  0  0
  9 10  1  0  0  0  0
  9 11  1  0  0  0  0
M  END
>  <Catalog ID>
Z1198162468

>  <PlateID>
1198308-R-SPFL-11

>  <Well>
A09

>  <MW (desalted)>
162.094

>  <ClogP>
0.557

>  <HBD>
1

>  <TPSA>
55.120

>  <RotBonds>
2

$$$$

            

 15 14  0  0  0  0            999 V2000
    0.0000    0.0000    0.0000 Cl  0  0  0  0  0  0  0  0  0  0  0  0
    2.0036    0.0000    0.0000 Cl  0  0  0  0  0  0  0  0  0  0  0  0
   -0.4607   -3.9271    0.0000 C   0  0  0  0  0  0  0  0  0  0  0  0
   -0.2058   -3.1424    0.0000 N   0  0  0  0  0  0  0  0  0  0  0  0
   -0.6907   -2.4750    0.0000 C   0  0  0  0  0  0  0  0  0  0  0  0
   -1.5157   -2.4750    0.0000 C   0  0  0  0  0  0  0  0  0  0  0  0
   -1.9282   -3.1895    0.0000 C   0  0  0  0  0  0  0  0  0  0  0  0
   -2.7532   -3.1895    0.0000 N   0  0  0  0  0  0  0  0  0  0  0  0
   -0.2058   -1.8076    0.0000 N   0  0  0  0  0  0  0  0  0  0  0  0
    0.5789   -2.0625    0.0000 C   0  0  0  0  0  0  0  0  0  0  0  0
    1.2933   -1.6500    0.0000 C   0  0  0  0  0  0  0  0  0  0  0  0
    2.0078   -2.0625    0.0000 C   0  0  0  0  0  0  0  0  0  0  0  0
    2.0078   -2.8875    0.0000 C   0  0  0  0  0  0  0  0  0  0  0  0
    1.2933   -3.3000    0.0000 C   0  0  0  0  0  0  0  0  0  0  0  0
    0.5789   -2.8875    0.0000 C   0  0  0  0  0  0  0  0  0  0  0  0
  3  4  1  0  0  0  0
  4  5  1  0  0  0  0
  5  6  1  0  0  0  0
  6  7  1  0  0  0  0
  7  8  1  0  0  0  0
  5  9  2  0  0  0  0
  9 10  1  0  0  0  0
 10 11  2  0  0  0  0
 11 12  1  0  0  0  0
 12 13  2  0  0  0  0
 13 14  1  0  0  0  0
 14 15  2  0  0  0  0
  4 15  1  0  0  0  0
 10 15  1  0  0  0  0
M  END
>  <Catalog ID>
Z1266933924

>  <PlateID>
1198308-R-SPFL-11

>  <Well>
A10

>  <MW (desalted)>
175.230

>  <ClogP>
0.642

>  <HBD>
1

>  <TPSA>
43.840

>  <RotBonds>
2

$$$$

            

 11 12  0  0  0  0            999 V2000
   -0.6078    4.3527    0.0000 C   0  0  0  0  0  0  0  0  0  0  0  0
   -0.6078    3.5277    0.0000 C   0  0  0  0  0  0  0  0  0  0  0  0
   -1.3222    3.1152    0.0000 C   0  0  0  0  0  0  0  0  0  0  0  0
   -2.0367    3.5277    0.0000 C   0  0  0  0  0  0  0  0  0  0  0  0
   -2.0367    4.3527    0.0000 C   0  0  0  0  0  0  0  0  0  0  0  0
   -1.3222    4.7652    0.0000 N   0  0  0  0  0  0  0  0  0  0  0  0
   -1.3222    2.2902    0.0000 C   0  0  0  0  0  0  0  0  0  0  0  0
   -0.6548    1.8053    0.0000 N   0  0  0  0  0  0  0  0  0  0  0  0
   -0.9097    1.0206    0.0000 C   0  0  0  0  0  0  0  0  0  0  0  0
   -1.7347    1.0206    0.0000 C   0  0  0  0  0  0  0  0  0  0  0  0
   -1.9897    1.8053    0.0000 S   0  0  0  0  0  0  0  0  0  0  0  0
  1  2  1  0  0  0  0
  2  3  1  0  0  0  0
  3  4  1  0  0  0  0
  4  5  1  0  0  0  0
  5  6  1  0  0  0  0
  1  6  1  0  0  0  0
  3  7  1  0  0  0  0
  7  8  2  0  0  0  0
  8  9  1  0  0  0  0
  9 10  2  0  0  0  0
 10 11  1  0  0  0  0
  7 11  1  0  0  0  0
M  END
>  <Catalog ID>
Z979729652

>  <PlateID>
1198308-R-SPFL-11

>  <Well>
A11

>  <MW (desalted)>
168.259

>  <ClogP>
0.687

>  <HBD>
1

>  <TPSA>
24.920

>  <RotBonds>
1

$$$$

            

 12 13  0  0  0  0            999 V2000
    0.0000   -2.4750    0.0000 O   0  0  0  0  0  0  0  0  0  0  0  0
    0.0000   -1.6500    0.0000 C   0  0  0  0  0  0  0  0  0  0  0  0
    0.7145   -1.2375    0.0000 C   0  0  0  0  0  0  0  0  0  0  0  0
    0.7145   -0.4125    0.0000 C   0  0  0  0  0  0  0  0  0  0  0  0
    1.4289    0.0000    0.0000 O   0  0  0  0  0  0  0  0  0  0  0  0
    2.1434   -0.4125    0.0000 C   0  0  0  0  0  0  0  0  0  0  0  0
    2.8579    0.0000    0.0000 C   0  0  0  0  0  0  0  0  0  0  0  0
    3.5724   -0.4125    0.0000 C   0  0  0  0  0  0  0  0  0  0  0  0
    3.5724   -1.2375    0.0000 C   0  0  0  0  0  0  0  0  0  0  0  0
    2.8579   -1.6500    0.0000 C   0  0  0  0  0  0  0  0  0  0  0  0
    2.1434   -1.2375    0.0000 C   0  0  0  0  0  0  0  0  0  0  0  0
    1.4289   -1.6500    0.0000 O   0  0  0  0  0  0  0  0  0  0  0  0
  1  2  1  0  0  0  0
  2  3  1  0  0  0  0
  3  4  1  0  0  0  0
  4  5  1  0  0  0  0
  5  6  1  0  0  0  0
  6  7  2  0  0  0  0
  7  8  1  0  0  0  0
  8  9  2  0  0  0  0
  9 10  1  0  0  0  0
 10 11  2  0  0  0  0
  6 11  1  0  0  0  0
 11 12  1  0  0  0  0
  3 12  1  0  0  0  0
M  END
>  <Catalog ID>
Z56943727

>  <PlateID>
1198308-R-SPFL-11

>  <Well>
B02

>  <MW (desalted)>
166.174

>  <ClogP>
1.116

>  <HBD>
1

>  <TPSA>
38.690

>  <RotBonds>
1

$$$$

            

 13 14  0  0  0  0            999 V2000
   -0.9122   -2.7712    0.0000 N   0  0  0  0  0  0  0  0  0  0  0  0
   -0.1053   -2.5997    0.0000 C   0  0  0  0  0  0  0  0  0  0  0  0
    0.7017   -2.4282    0.0000 C   0  0  0  0  0  0  0  0  0  0  0  0
    0.9566   -1.6436    0.0000 C   0  0  0  0  0  0  0  0  0  0  0  0
    0.4717   -0.9761    0.0000 N   0  0  0  0  0  0  0  0  0  0  0  0
    0.9566   -0.3087    0.0000 N   0  0  0  0  0  0  0  0  0  0  0  0
    1.7413   -0.5636    0.0000 C   0  0  0  0  0  0  0  0  0  0  0  0
    2.3863   -0.0492    0.0000 C   0  0  0  0  0  0  0  0  0  0  0  0
    3.1906   -0.2328    0.0000 C   0  0  0  0  0  0  0  0  0  0  0  0
    3.5485   -0.9761    0.0000 C   0  0  0  0  0  0  0  0  0  0  0  0
    3.1906   -1.7194    0.0000 C   0  0  0  0  0  0  0  0  0  0  0  0
    2.3863   -1.9030    0.0000 C   0  0  0  0  0  0  0  0  0  0  0  0
    1.7413   -1.3886    0.0000 N   0  0  0  0  0  0  0  0  0  0  0  0
  1  2  3  0  0  0  0
  2  3  1  0  0  0  0
  3  4  1  0  0  0  0
  4  5  2  0  0  0  0
  5  6  1  0  0  0  0
  6  7  2  0  0  0  0
  7  8  1  0  0  0  0
  8  9  1  0  0  0  0
  9 10  1  0  0  0  0
 10 11  1  0  0  0  0
 11 12  1  0  0  0  0
 12 13  1  0  0  0  0
  4 13  1  0  0  0  0
  7 13  1  0  0  0  0
M  END
>  <Catalog ID>
Z56904672

>  <PlateID>
1198308-R-SPFL-11

>  <Well>
B03

>  <MW (desalted)>
176.218

>  <ClogP>
-0.257

>  <HBD>
0

>  <TPSA>
54.500

>  <RotBonds>
1

$$$$

            

 10 10  0  0  0  0            999 V2000
    0.5678    1.9393    0.0000 C   0  0  0  0  0  0  0  0  0  0  0  0
    0.5678    1.1143    0.0000 C   0  0  0  0  0  0  0  0  0  0  0  0
    1.2352    0.6294    0.0000 C   0  0  0  0  0  0  0  0  0  0  0  0
    0.9803   -0.1553    0.0000 N   0  0  0  0  0  0  0  0  0  0  0  0
    0.1553   -0.1553    0.0000 N   0  0  0  0  0  0  0  0  0  0  0  0
   -0.3297   -0.8227    0.0000 C   0  0  0  0  0  0  0  0  0  0  0  0
   -0.0997    0.6294    0.0000 C   0  0  0  0  0  0  0  0  0  0  0  0
   -0.8843    0.8843    0.0000 C   0  0  0  0  0  0  0  0  0  0  0  0
   -1.0558    1.6913    0.0000 O   0  0  0  0  0  0  0  0  0  0  0  0
   -1.4974    0.3323    0.0000 O   0  0  0  0  0  0  0  0  0  0  0  0
  1  2  1  0  0  0  0
  2  3  1  0  0  0  0
  3  4  2  0  0  0  0
  4  5  1  0  0  0  0
  5  6  1  0  0  0  0
  5  7  1  0  0  0  0
  2  7  2  0  0  0  0
  7  8  1  0  0  0  0
  8  9  2  0  0  0  0
  8 10  1  0  0  0  0
M  END
>  <Catalog ID>
Z1205494201

>  <PlateID>
1198308-R-SPFL-11

>  <Well>
B04

>  <MW (desalted)>
140.140

>  <ClogP>
0.230

>  <HBD>
1

>  <TPSA>
55.120

>  <RotBonds>
1

$$$$

            

 14 14  0  0  0  0            999 V2000
    0.0000    0.0000    0.0000 Cl  0  0  0  0  0  0  0  0  0  0  0  0
    2.3571   -1.6817    0.0000 C   0  0  0  0  0  0  0  0  0  0  0  0
    2.3571   -0.8567    0.0000 C   0  0  0  0  0  0  0  0  0  0  0  0
    3.0716   -0.4442    0.0000 C   0  0  0  0  0  0  0  0  0  0  0  0
    3.7861   -0.8567    0.0000 C   0  0  0  0  0  0  0  0  0  0  0  0
    3.7861   -1.6817    0.0000 C   0  0  0  0  0  0  0  0  0  0  0  0
    3.0716   -2.0942    0.0000 N   0  0  0  0  0  0  0  0  0  0  0  0
    3.0716    0.3808    0.0000 O   0  0  0  0  0  0  0  0  0  0  0  0
    3.7861    0.7933    0.0000 C   0  0  0  0  0  0  0  0  0  0  0  0
    3.7861    1.6183    0.0000 C   0  0  0  0  0  0  0  0  0  0  0  0
    4.5006    2.0308    0.0000 C   0  0  0  0  0  0  0  0  0  0  0  0
    5.2150    1.6183    0.0000 C   0  0  0  0  0  0  0  0  0  0  0  0
    5.2150    0.7933    0.0000 C   0  0  0  0  0  0  0  0  0  0  0  0
    4.5006    0.3808    0.0000 C   0  0  0  0  0  0  0  0  0  0  0  0
  2  3  1  0  0  0  0
  3  4  1  0  0  0  0
  4  5  1  0  0  0  0
  5  6  1  0  0  0  0
  6  7  1  0  0  0  0
  2  7  1  0  0  0  0
  4  8  1  0  0  0  0
  8  9  1  0  0  0  0
  9 10  2  0  0  0  0
 10 11  1  0  0  0  0
 11 12  2  0  0  0  0
 12 13  1  0  0  0  0
 13 14  2  0  0  0  0
  9 14  1  0  0  0  0
M  END
>  <Catalog ID>
Z425387708

>  <PlateID>
1198308-R-SPFL-11

>  <Well>
B05

>  <MW (desalted)>
177.243

>  <ClogP>
1.673

>  <HBD>
1

>  <TPSA>
21.260

>  <RotBonds>
2

$$$$

            

 13 14  0  0  0  0            999 V2000
    1.4289   -0.0000    0.0000 N   0  0  0  0  0  0  0  0  0  0  0  0
    0.7145   -0.4125    0.0000 C   0  0  0  0  0  0  0  0  0  0  0  0
    0.7145   -1.2375    0.0000 C   0  0  0  0  0  0  0  0  0  0  0  0
    1.3819   -1.7224    0.0000 C   0  0  0  0  0  0  0  0  0  0  0  0
    1.1270   -2.5070    0.0000 C   0  0  0  0  0  0  0  0  0  0  0  0
    0.3020   -2.5070    0.0000 N   0  0  0  0  0  0  0  0  0  0  0  0
    0.0470   -1.7224    0.0000 C   0  0  0  0  0  0  0  0  0  0  0  0
   -0.1830   -3.1745    0.0000 C   0  0  0  0  0  0  0  0  0  0  0  0
    0.1526   -3.9282    0.0000 C   0  0  0  0  0  0  0  0  0  0  0  0
   -0.3323   -4.5956    0.0000 C   0  0  0  0  0  0  0  0  0  0  0  0
   -1.1528   -4.5094    0.0000 C   0  0  0  0  0  0  0  0  0  0  0  0
   -1.4884   -3.7557    0.0000 C   0  0  0  0  0  0  0  0  0  0  0  0
   -1.0034   -3.0882    0.0000 C   0  0  0  0  0  0  0  0  0  0  0  0
  1  2  1  0  0  0  0
  2  3  1  0  0  0  0
  3  4  1  0  0  0  0
  4  5  1  0  0  0  0
  5  6  1  0  0  0  0
  6  7  1  0  0  0  0
  3  7  1  0  0  0  0
  6  8  1  0  0  0  0
  8  9  2  0  0  0  0
  9 10  1  0  0  0  0
 10 11  2  0  0  0  0
 11 12  1  0  0  0  0
 12 13  2  0  0  0  0
  8 13  1  0  0  0  0
M  END
>  <Catalog ID>
Z317027190

>  <PlateID>
1198308-R-SPFL-11

>  <Well>
B06

>  <MW (desalted)>
176.258

>  <ClogP>
1.053

>  <HBD>
1

>  <TPSA>
29.260

>  <RotBonds>
2

$$$$

            

 11 11  0  0  0  0            999 V2000
    0.7145    2.0625    0.0000 C   0  0  0  0  0  0  0  0  0  0  0  0
    0.7145    1.2375    0.0000 C   0  0  0  0  0  0  0  0  0  0  0  0
    1.4289    0.8250    0.0000 C   0  0  0  0  0  0  0  0  0  0  0  0
    1.4289   -0.0000    0.0000 C   0  0  0  0  0  0  0  0  0  0  0  0
    0.7145   -0.4125    0.0000 N   0  0  0  0  0  0  0  0  0  0  0  0
    0.0000    0.0000    0.0000 C   0  0  0  0  0  0  0  0  0  0  0  0
    0.0000    0.8250    0.0000 C   0  0  0  0  0  0  0  0  0  0  0  0
   -0.7145   -0.4125    0.0000 S   0  0  0  0  0  0  0  0  0  0  0  0
   -1.4289   -0.8250    0.0000 O   0  0  0  0  0  0  0  0  0  0  0  0
   -1.1270    0.3020    0.0000 O   0  0  0  0  0  0  0  0  0  0  0  0
   -0.3020   -1.1270    0.0000 N   0  0  0  0  0  0  0  0  0  0  0  0
  1  2  1  0  0  0  0
  2  3  2  0  0  0  0
  3  4  1  0  0  0  0
  4  5  2  0  0  0  0
  5  6  1  0  0  0  0
  6  7  2  0  0  0  0
  2  7  1  0  0  0  0
  6  8  1  0  0  0  0
  8  9  2  0  0  0  0
  8 10  2  0  0  0  0
  8 11  1  0  0  0  0
M  END
>  <Catalog ID>
Z854066780

>  <PlateID>
1198308-R-SPFL-11

>  <Well>
B07

>  <MW (desalted)>
172.205

>  <ClogP>
0.304

>  <HBD>
1

>  <TPSA>
73.050

>  <RotBonds>
1

$$$$

            

 15 16  0  0  0  0            999 V2000
    1.4289   -1.6500    0.0000 N   0  0  0  0  0  0  0  0  0  0  0  0
    1.4289   -2.4750    0.0000 C   0  0  0  0  0  0  0  0  0  0  0  0
    2.1434   -2.8875    0.0000 C   0  0  0  0  0  0  0  0  0  0  0  0
    2.1434   -3.7125    0.0000 C   0  0  0  0  0  0  0  0  0  0  0  0
    1.4289   -4.1250    0.0000 N   0  0  0  0  0  0  0  0  0  0  0  0
    1.4289   -4.9500    0.0000 C   0  0  0  0  0  0  0  0  0  0  0  0
    2.1434   -5.3625    0.0000 C   0  0  0  0  0  0  0  0  0  0  0  0
    2.1434   -6.1875    0.0000 C   0  0  0  0  0  0  0  0  0  0  0  0
    2.8579   -6.6000    0.0000 C   0  0  0  0  0  0  0  0  0  0  0  0
    2.8579   -7.4250    0.0000 C   0  0  0  0  0  0  0  0  0  0  0  0
    2.1434   -7.8375    0.0000 C   0  0  0  0  0  0  0  0  0  0  0  0
    1.4289   -7.4250    0.0000 C   0  0  0  0  0  0  0  0  0  0  0  0
    1.4289   -6.6000    0.0000 C   0  0  0  0  0  0  0  0  0  0  0  0
    0.7145   -3.7125    0.0000 C   0  0  0  0  0  0  0  0  0  0  0  0
    0.7145   -2.8875    0.0000 C   0  0  0  0  0  0  0  0  0  0  0  0
  1  2  1  0  0  0  0
  2  3  1  0  0  0  0
  3  4  1  0  0  0  0
  4  5  1  0  0  0  0
  5  6  1  0  0  0  0
  6  7  1  0  0  0  0
  7  8  1  0  0  0  0
  8  9  2  0  0  0  0
  9 10  1  0  0  0  0
 10 11  2  0  0  0  0
 11 12  1  0  0  0  0
 12 13  2  0  0  0  0
  8 13  1  0  0  0  0
  5 14  1  0  0  0  0
 14 15  1  0  0  0  0
  2 15  1  0  0  0  0
M  END
>  <Catalog ID>
Z239097764

>  <PlateID>
1198308-R-SPFL-11

>  <Well>
B08

>  <MW (desalted)>
204.311

>  <ClogP>
1.321

>  <HBD>
1

>  <TPSA>
29.260

>  <RotBonds>
3

$$$$

            

 12 12  0  0  0  0            999 V2000
    1.2822    2.3518    0.0000 O   0  0  0  0  0  0  0  0  0  0  0  0
    0.5678    1.9393    0.0000 C   0  0  0  0  0  0  0  0  0  0  0  0
   -0.1467    2.3518    0.0000 O   0  0  0  0  0  0  0  0  0  0  0  0
    0.5678    1.1143    0.0000 C   0  0  0  0  0  0  0  0  0  0  0  0
    1.2352    0.6294    0.0000 N   0  0  0  0  0  0  0  0  0  0  0  0
    0.9803   -0.1553    0.0000 C   0  0  0  0  0  0  0  0  0  0  0  0
    0.1553   -0.1553    0.0000 S   0  0  0  0  0  0  0  0  0  0  0  0
   -0.0997    0.6294    0.0000 C   0  0  0  0  0  0  0  0  0  0  0  0
   -0.8843    0.8843    0.0000 C   0  0  0  0  0  0  0  0  0  0  0  0
   -1.6689    1.1392    0.0000 F   0  0  0  0  0  0  0  0  0  0  0  0
   -0.6294    1.6689    0.0000 F   0  0  0  0  0  0  0  0  0  0  0  0
   -1.1392    0.0997    0.0000 F   0  0  0  0  0  0  0  0  0  0  0  0
  1  2  1  0  0  0  0
  2  3  2  0  0  0  0
  2  4  1  0  0  0  0
  4  5  1  0  0  0  0
  5  6  2  0  0  0  0
  6  7  1  0  0  0  0
  7  8  1  0  0  0  0
  4  8  2  0  0  0  0
  8  9  1  0  0  0  0
  9 10  1  0  0  0  0
  9 11  1  0  0  0  0
  9 12  1  0  0  0  0
M  END
>  <Catalog ID>
Z1198267173

>  <PlateID>
1198308-R-SPFL-11

>  <Well>
B09

>  <MW (desalted)>
197.135

>  <ClogP>
0.925

>  <HBD>
1

>  <TPSA>
50.190

>  <RotBonds>
2

$$$$

            

 16 15  0  0  0  0            999 V2000
    0.0000    0.0000    0.0000 Cl  0  0  0  0  0  0  0  0  0  0  0  0
    2.0036    0.0000    0.0000 Cl  0  0  0  0  0  0  0  0  0  0  0  0
   -2.5006   -2.0625    0.0000 N   0  0  0  0  0  0  0  0  0  0  0  0
   -1.7862   -1.6500    0.0000 C   0  0  0  0  0  0  0  0  0  0  0  0
   -1.0717   -2.0625    0.0000 C   0  0  0  0  0  0  0  0  0  0  0  0
   -0.3572   -1.6500    0.0000 C   0  0  0  0  0  0  0  0  0  0  0  0
    0.3572   -2.0625    0.0000 C   0  0  0  0  0  0  0  0  0  0  0  0
    0.3572   -2.8875    0.0000 C   0  0  0  0  0  0  0  0  0  0  0  0
    1.0717   -3.3000    0.0000 C   0  0  0  0  0  0  0  0  0  0  0  0
    1.0717   -4.1250    0.0000 N   0  0  0  0  0  0  0  0  0  0  0  0
    1.7391   -4.6099    0.0000 C   0  0  0  0  0  0  0  0  0  0  0  0
    1.4842   -5.3945    0.0000 C   0  0  0  0  0  0  0  0  0  0  0  0
    0.6592   -5.3945    0.0000 N   0  0  0  0  0  0  0  0  0  0  0  0
    0.4043   -4.6099    0.0000 C   0  0  0  0  0  0  0  0  0  0  0  0
   -0.3572   -3.3000    0.0000 C   0  0  0  0  0  0  0  0  0  0  0  0
   -1.0717   -2.8875    0.0000 C   0  0  0  0  0  0  0  0  0  0  0  0
  3  4  1  0  0  0  0
  4  5  1  0  0  0  0
  5  6  2  0  0  0  0
  6  7  1  0  0  0  0
  7  8  2  0  0  0  0
  8  9  1  0  0  0  0
  9 10  1  0  0  0  0
 10 11  1  0  0  0  0
 11 12  2  0  0  0  0
 12 13  1  0  0  0  0
 13 14  2  0  0  0  0
 10 14  1  0  0  0  0
  8 15  1  0  0  0  0
 15 16  2  0  0  0  0
  5 16  1  0  0  0  0
M  END
>  <Catalog ID>
Z199409062

>  <PlateID>
1198308-R-SPFL-11

>  <Well>
B10

>  <MW (desalted)>
187.241

>  <ClogP>
0.457

>  <HBD>
1

>  <TPSA>
43.840

>  <RotBonds>
3

$$$$

            

 12 12  0  0  0  0            999 V2000
    1.4289    2.4750    0.0000 C   0  0  0  0  0  0  0  0  0  0  0  0
    0.7145    2.0625    0.0000 O   0  0  0  0  0  0  0  0  0  0  0  0
    0.7145    1.2375    0.0000 C   0  0  0  0  0  0  0  0  0  0  0  0
    1.4289    0.8250    0.0000 C   0  0  0  0  0  0  0  0  0  0  0  0
    1.4289   -0.0000    0.0000 C   0  0  0  0  0  0  0  0  0  0  0  0
    0.7145   -0.4125    0.0000 C   0  0  0  0  0  0  0  0  0  0  0  0
    0.0000    0.0000    0.0000 C   0  0  0  0  0  0  0  0  0  0  0  0
   -0.7145   -0.4125    0.0000 C   0  0  0  0  0  0  0  0  0  0  0  0
   -1.4289    0.0000    0.0000 C   0  0  0  0  0  0  0  0  0  0  0  0
   -2.1434   -0.4125    0.0000 O   0  0  0  0  0  0  0  0  0  0  0  0
   -1.4289    0.8250    0.0000 O   0  0  0  0  0  0  0  0  0  0  0  0
    0.0000    0.8250    0.0000 C   0  0  0  0  0  0  0  0  0  0  0  0
  1  2  1  0  0  0  0
  2  3  1  0  0  0  0
  3  4  2  0  0  0  0
  4  5  1  0  0  0  0
  5  6  2  0  0  0  0
  6  7  1  0  0  0  0
  7  8  1  0  0  0  0
  8  9  1  0  0  0  0
  9 10  2  0  0  0  0
  9 11  1  0  0  0  0
  7 12  2  0  0  0  0
  3 12  1  0  0  0  0
M  END
>  <Catalog ID>
Z104478986

>  <PlateID>
1198308-R-SPFL-11

>  <Well>
B11

>  <MW (desalted)>
166.174

>  <ClogP>
1.333

>  <HBD>
1

>  <TPSA>
46.530

>  <RotBonds>
3

$$$$

            

 11 11  0  0  0  0            999 V2000
    0.0000    0.0000    0.0000 Cl  0  0  0  0  0  0  0  0  0  0  0  0
    2.3571   -1.3069    0.0000 N   0  0  0  0  0  0  0  0  0  0  0  0
    2.6121   -0.5222    0.0000 C   0  0  0  0  0  0  0  0  0  0  0  0
    2.1272    0.1452    0.0000 C   0  0  0  0  0  0  0  0  0  0  0  0
    2.6121    0.8126    0.0000 N   0  0  0  0  0  0  0  0  0  0  0  0
    3.3967    0.5577    0.0000 C   0  0  0  0  0  0  0  0  0  0  0  0
    4.1112    0.9702    0.0000 C   0  0  0  0  0  0  0  0  0  0  0  0
    4.8256    0.5577    0.0000 C   0  0  0  0  0  0  0  0  0  0  0  0
    4.8256   -0.2673    0.0000 C   0  0  0  0  0  0  0  0  0  0  0  0
    4.1112   -0.6798    0.0000 C   0  0  0  0  0  0  0  0  0  0  0  0
    3.3967   -0.2673    0.0000 N   0  0  0  0  0  0  0  0  0  0  0  0
  2  3  1  0  0  0  0
  3  4  2  0  0  0  0
  4  5  1  0  0  0  0
  5  6  2  0  0  0  0
  6  7  1  0  0  0  0
  7  8  1  0  0  0  0
  8  9  1  0  0  0  0
  9 10  1  0  0  0  0
 10 11  1  0  0  0  0
  3 11  1  0  0  0  0
  6 11  1  0  0  0  0
M  END
>  <Catalog ID>
Z2230911175

>  <PlateID>
1198308-R-SPFL-11

>  <Well>
C02

>  <MW (desalted)>
137.182

>  <ClogP>
0.545

>  <HBD>
1

>  <TPSA>
43.840

>  <RotBonds>
0

$$$$

            

 15 16  0  0  0  0            999 V2000
    2.8579    0.0000    0.0000 N   0  0  0  0  0  0  0  0  0  0  0  0
    2.1434   -0.4125    0.0000 C   0  0  0  0  0  0  0  0  0  0  0  0
    2.1434   -1.2375    0.0000 C   0  0  0  0  0  0  0  0  0  0  0  0
    2.8579   -1.6500    0.0000 C   0  0  0  0  0  0  0  0  0  0  0  0
    2.8579   -2.4750    0.0000 S   0  0  0  0  0  0  0  0  0  0  0  0
    2.1434   -2.8875    0.0000 C   0  0  0  0  0  0  0  0  0  0  0  0
    1.4289   -2.4750    0.0000 C   0  0  0  0  0  0  0  0  0  0  0  0
    1.4289   -1.6500    0.0000 N   0  0  0  0  0  0  0  0  0  0  0  0
    0.7145   -1.2375    0.0000 C   0  0  0  0  0  0  0  0  0  0  0  0
    0.7145   -0.4125    0.0000 C   0  0  0  0  0  0  0  0  0  0  0  0
    0.0000    0.0000    0.0000 C   0  0  0  0  0  0  0  0  0  0  0  0
    0.0000    0.8250    0.0000 C   0  0  0  0  0  0  0  0  0  0  0  0
    0.7145    1.2375    0.0000 C   0  0  0  0  0  0  0  0  0  0  0  0
    1.4289    0.8250    0.0000 C   0  0  0  0  0  0  0  0  0  0  0  0
    1.4289    0.0000    0.0000 C   0  0  0  0  0  0  0  0  0  0  0  0
  1  2  1  0  0  0  0
  2  3  1  0  0  0  0
  3  4  1  0  0  0  0
  4  5  1  0  0  0  0
  5  6  1  0  0  0  0
  6  7  1  0  0  0  0
  7  8  1  0  0  0  0
  3  8  1  0  0  0  0
  8  9  1  0  0  0  0
  9 10  1  0  0  0  0
 10 11  2  0  0  0  0
 11 12  1  0  0  0  0
 12 13  2  0  0  0  0
 13 14  1  0  0  0  0
 14 15  2  0  0  0  0
 10 15  1  0  0  0  0
M  END
>  <Catalog ID>
Z1509575246

>  <PlateID>
1198308-R-SPFL-11

>  <Well>
C03

>  <MW (desalted)>
222.350

>  <ClogP>
2.066

>  <HBD>
1

>  <TPSA>
29.260

>  <RotBonds>
3

$$$$

            

 11 11  0  0  0  0            999 V2000
    0.0000    3.3000    0.0000 C   0  0  0  0  0  0  0  0  0  0  0  0
    0.0000    2.4750    0.0000 C   0  0  0  0  0  0  0  0  0  0  0  0
   -0.7145    2.0625    0.0000 O   0  0  0  0  0  0  0  0  0  0  0  0
    0.7145    2.0625    0.0000 N   0  0  0  0  0  0  0  0  0  0  0  0
    0.7145    1.2375    0.0000 C   0  0  0  0  0  0  0  0  0  0  0  0
    1.4289    0.8250    0.0000 C   0  0  0  0  0  0  0  0  0  0  0  0
    1.4289   -0.0000    0.0000 C   0  0  0  0  0  0  0  0  0  0  0  0
    0.7145   -0.4125    0.0000 C   0  0  0  0  0  0  0  0  0  0  0  0
    0.7145   -1.2375    0.0000 F   0  0  0  0  0  0  0  0  0  0  0  0
    0.0000    0.0000    0.0000 C   0  0  0  0  0  0  0  0  0  0  0  0
    0.0000    0.8250    0.0000 C   0  0  0  0  0  0  0  0  0  0  0  0
  1  2  1  0  0  0  0
  2  3  2  0  0  0  0
  2  4  1  0  0  0  0
  4  5  1  0  0  0  0
  5  6  2  0  0  0  0
  6  7  1  0  0  0  0
  7  8  2  0  0  0  0
  8  9  1  0  0  0  0
  8 10  1  0  0  0  0
 10 11  2  0  0  0  0
  5 11  1  0  0  0  0
M  END
>  <Catalog ID>
Z27805821

>  <PlateID>
1198308-R-SPFL-11

>  <Well>
C04

>  <MW (desalted)>
153.154

>  <ClogP>
1.562

>  <HBD>
1

>  <TPSA>
29.100

>  <RotBonds>
1

$$$$

            

  0  0  0     0  0            999 V3000
M  V30 BEGIN CTAB
M  V30 COUNTS 12 13 0 0 0
M  V30 BEGIN ATOM
M  V30 1 O 1.3337 -0.77 0 0
M  V30 2 C 1.3337 -2.31 0 0 CFG=2
M  V30 3 C 2.5796 -3.2152 0 0
M  V30 4 C 2.1037 -4.6798 0 0
M  V30 5 C 0.5637 -4.6798 0 0
M  V30 6 C 0.0878 -3.2152 0 0 CFG=2
M  V30 7 C -1.3768 -2.7393 0 0
M  V30 8 C -2.5213 -3.7698 0 0
M  V30 9 C -3.9859 -3.2939 0 0
M  V30 10 C -4.3061 -1.7875 0 0
M  V30 11 C -3.1616 -0.7571 0 0
M  V30 12 N -1.697 -1.233 0 0
M  V30 END ATOM
M  V30 BEGIN BOND
M  V30 1 1 2 1 CFG=3
M  V30 2 1 2 3
M  V30 3 1 3 4
M  V30 4 1 4 5
M  V30 5 1 6 5
M  V30 6 1 2 6
M  V30 7 1 6 7 CFG=3
M  V30 8 2 7 8
M  V30 9 1 8 9
M  V30 10 2 9 10
M  V30 11 1 10 11
M  V30 12 2 11 12
M  V30 13 1 7 12
M  V30 END BOND
M  V30 BEGIN COLLECTION
M  V30 MDLV30/STERAC1 ATOMS=(2 2 6)
M  V30 END COLLECTION
M  V30 END CTAB
M  END
>  <Catalog ID>
Z2256211813

>  <PlateID>
1198308-R-SPFL-11

>  <Well>
C05

>  <MW (desalted)>
163.216

>  <ClogP>
0.769

>  <HBD>
1

>  <TPSA>
33.120

>  <RotBonds>
1

$$$$

            

 11 10  0  0  0  0            999 V2000
    0.0000    0.0000    0.0000 Cl  0  0  0  0  0  0  0  0  0  0  0  0
    1.8857    1.9184    0.0000 O   0  0  0  0  0  0  0  0  0  0  0  0
    2.6002    1.5059    0.0000 C   0  0  0  0  0  0  0  0  0  0  0  0
    3.3147    1.9184    0.0000 O   0  0  0  0  0  0  0  0  0  0  0  0
    2.6002    0.6809    0.0000 C   0  0  0  0  0  0  0  0  0  0  0  0
    3.3147    0.2684    0.0000 C   0  0  0  0  0  0  0  0  0  0  0  0
    3.3147   -0.5566    0.0000 C   0  0  0  0  0  0  0  0  0  0  0  0
    3.9821   -1.0415    0.0000 C   0  0  0  0  0  0  0  0  0  0  0  0
    3.7272   -1.8262    0.0000 N   0  0  0  0  0  0  0  0  0  0  0  0
    2.9022   -1.8262    0.0000 C   0  0  0  0  0  0  0  0  0  0  0  0
    2.6472   -1.0415    0.0000 S   0  0  0  0  0  0  0  0  0  0  0  0
  2  3  1  0  0  0  0
  3  4  2  0  0  0  0
  3  5  1  0  0  0  0
  5  6  1  0  0  0  0
  6  7  1  0  0  0  0
  7  8  2  0  0  0  0
  8  9  1  0  0  0  0
  9 10  2  0  0  0  0
 10 11  1  0  0  0  0
  7 11  1  0  0  0  0
M  END
>  <Catalog ID>
Z2289798933

>  <PlateID>
1198308-R-SPFL-11

>  <Well>
C06

>  <MW (desalted)>
157.190

>  <ClogP>
0.247

>  <HBD>
1

>  <TPSA>
50.190

>  <RotBonds>
3

$$$$

            

 13 13  0  0  0  0            999 V2000
    0.0000    0.0000    0.0000 Cl  0  0  0  0  0  0  0  0  0  0  0  0
    2.3571   -0.5954    0.0000 N   0  0  0  0  0  0  0  0  0  0  0  0
    3.1821   -0.5954    0.0000 C   0  0  0  0  0  0  0  0  0  0  0  0
    3.5946    0.1191    0.0000 C   0  0  0  0  0  0  0  0  0  0  0  0
    4.4196    0.1191    0.0000 C   0  0  0  0  0  0  0  0  0  0  0  0
    4.9046    0.7865    0.0000 C   0  0  0  0  0  0  0  0  0  0  0  0
    5.6892    0.5316    0.0000 C   0  0  0  0  0  0  0  0  0  0  0  0
    6.4037    0.9441    0.0000 C   0  0  0  0  0  0  0  0  0  0  0  0
    7.1181    0.5316    0.0000 C   0  0  0  0  0  0  0  0  0  0  0  0
    7.1181   -0.2934    0.0000 C   0  0  0  0  0  0  0  0  0  0  0  0
    6.4037   -0.7059    0.0000 C   0  0  0  0  0  0  0  0  0  0  0  0
    5.6892   -0.2934    0.0000 C   0  0  0  0  0  0  0  0  0  0  0  0
    4.9046   -0.5484    0.0000 O   0  0  0  0  0  0  0  0  0  0  0  0
  2  3  1  0  0  0  0
  3  4  1  0  0  0  0
  4  5  1  0  0  0  0
  5  6  2  0  0  0  0
  6  7  1  0  0  0  0
  7  8  2  0  0  0  0
  8  9  1  0  0  0  0
  9 10  2  0  0  0  0
 10 11  1  0  0  0  0
 11 12  2  0  0  0  0
  7 12  1  0  0  0  0
 12 13  1  0  0  0  0
  5 13  1  0  0  0  0
M  END
>  <Catalog ID>
Z1250132703

>  <PlateID>
1198308-R-SPFL-11

>  <Well>
C07

>  <MW (desalted)>
161.200

>  <ClogP>
1.993

>  <HBD>
1

>  <TPSA>
39.160

>  <RotBonds>
2

$$$$

            

 11 12  0  0  0  0            999 V2000
    0.0000   -1.6500    0.0000 C   0  0  0  0  0  0  0  0  0  0  0  0
    0.7145   -1.2375    0.0000 C   0  0  0  0  0  0  0  0  0  0  0  0
    0.7145   -0.4125    0.0000 C   0  0  0  0  0  0  0  0  0  0  0  0
    1.4289    0.0000    0.0000 C   0  0  0  0  0  0  0  0  0  0  0  0
    2.1434   -0.4125    0.0000 C   0  0  0  0  0  0  0  0  0  0  0  0
    2.8579    0.0000    0.0000 N   0  0  0  0  0  0  0  0  0  0  0  0
    3.5724   -0.4125    0.0000 C   0  0  0  0  0  0  0  0  0  0  0  0
    3.5724   -1.2375    0.0000 C   0  0  0  0  0  0  0  0  0  0  0  0
    2.8579   -1.6500    0.0000 O   0  0  0  0  0  0  0  0  0  0  0  0
    2.1434   -1.2375    0.0000 C   0  0  0  0  0  0  0  0  0  0  0  0
    1.4289   -1.6500    0.0000 C   0  0  0  0  0  0  0  0  0  0  0  0
  1  2  1  0  0  0  0
  2  3  2  0  0  0  0
  3  4  1  0  0  0  0
  4  5  2  0  0  0  0
  5  6  1  0  0  0  0
  6  7  1  0  0  0  0
  7  8  1  0  0  0  0
  8  9  1  0  0  0  0
  9 10  1  0  0  0  0
  5 10  1  0  0  0  0
 10 11  2  0  0  0  0
  2 11  1  0  0  0  0
M  END
>  <Catalog ID>
Z1203731551

>  <PlateID>
1198308-R-SPFL-11

>  <Well>
C08

>  <MW (desalted)>
149.190

>  <ClogP>
2.159

>  <HBD>
1

>  <TPSA>
21.260

>  <RotBonds>
0

$$$$

            

 12 13  0  0  0  0            999 V2000
    0.7145   -0.4125    0.0000 N   0  0  0  0  0  0  0  0  0  0  0  0
    0.7145   -1.2375    0.0000 C   0  0  0  0  0  0  0  0  0  0  0  0
    1.3819   -1.7224    0.0000 C   0  0  0  0  0  0  0  0  0  0  0  0
    1.1270   -2.5070    0.0000 C   0  0  0  0  0  0  0  0  0  0  0  0
    0.3020   -2.5070    0.0000 N   0  0  0  0  0  0  0  0  0  0  0  0
    0.0470   -1.7224    0.0000 N   0  0  0  0  0  0  0  0  0  0  0  0
   -0.7376   -1.4675    0.0000 C   0  0  0  0  0  0  0  0  0  0  0  0
   -1.3507   -2.0195    0.0000 C   0  0  0  0  0  0  0  0  0  0  0  0
   -2.1353   -1.7646    0.0000 C   0  0  0  0  0  0  0  0  0  0  0  0
   -2.3068   -0.9576    0.0000 C   0  0  0  0  0  0  0  0  0  0  0  0
   -1.6937   -0.4056    0.0000 C   0  0  0  0  0  0  0  0  0  0  0  0
   -0.9091   -0.6605    0.0000 C   0  0  0  0  0  0  0  0  0  0  0  0
  1  2  1  0  0  0  0
  2  3  2  0  0  0  0
  3  4  1  0  0  0  0
  4  5  2  0  0  0  0
  5  6  1  0  0  0  0
  2  6  1  0  0  0  0
  6  7  1  0  0  0  0
  7  8  2  0  0  0  0
  8  9  1  0  0  0  0
  9 10  2  0  0  0  0
 10 11  1  0  0  0  0
 11 12  2  0  0  0  0
  7 12  1  0  0  0  0
M  END
>  <Catalog ID>
Z415654458

>  <PlateID>
1198308-R-SPFL-11

>  <Well>
C09

>  <MW (desalted)>
159.188

>  <ClogP>
1.412

>  <HBD>
1

>  <TPSA>
43.840

>  <RotBonds>
1

$$$$

            

 14 15  0  0  0  0            999 V2000
    2.1434   -0.4125    0.0000 N   0  0  0  0  0  0  0  0  0  0  0  0
    2.1434   -1.2375    0.0000 C   0  0  0  0  0  0  0  0  0  0  0  0
    2.8579   -1.6500    0.0000 N   0  0  0  0  0  0  0  0  0  0  0  0
    2.8579   -2.4750    0.0000 C   0  0  0  0  0  0  0  0  0  0  0  0
    2.1434   -2.8875    0.0000 C   0  0  0  0  0  0  0  0  0  0  0  0
    1.4289   -2.4750    0.0000 C   0  0  0  0  0  0  0  0  0  0  0  0
    0.7145   -2.8875    0.0000 O   0  0  0  0  0  0  0  0  0  0  0  0
    0.0000   -2.4750    0.0000 C   0  0  0  0  0  0  0  0  0  0  0  0
   -0.7145   -2.8875    0.0000 C   0  0  0  0  0  0  0  0  0  0  0  0
   -1.4289   -2.4750    0.0000 C   0  0  0  0  0  0  0  0  0  0  0  0
   -1.4289   -1.6500    0.0000 C   0  0  0  0  0  0  0  0  0  0  0  0
   -0.7145   -1.2375    0.0000 C   0  0  0  0  0  0  0  0  0  0  0  0
    0.0000   -1.6500    0.0000 C   0  0  0  0  0  0  0  0  0  0  0  0
    1.4289   -1.6500    0.0000 N   0  0  0  0  0  0  0  0  0  0  0  0
  1  2  1  0  0  0  0
  2  3  2  0  0  0  0
  3  4  1  0  0  0  0
  4  5  2  0  0  0  0
  5  6  1  0  0  0  0
  6  7  1  0  0  0  0
  7  8  1  0  0  0  0
  8  9  2  0  0  0  0
  9 10  1  0  0  0  0
 10 11  2  0  0  0  0
 11 12  1  0  0  0  0
 12 13  2  0  0  0  0
  8 13  1  0  0  0  0
  6 14  2  0  0  0  0
  2 14  1  0  0  0  0
M  END
>  <Catalog ID>
Z1255457870

>  <PlateID>
1198308-R-SPFL-11

>  <Well>
C10

>  <MW (desalted)>
187.198

>  <ClogP>
1.774

>  <HBD>
1

>  <TPSA>
61.030

>  <RotBonds>
2

$$$$

            

 12 13  0  0  0  0            999 V2000
    0.7145   -0.4125    0.0000 O   0  0  0  0  0  0  0  0  0  0  0  0
    0.7145   -1.2375    0.0000 C   0  0  0  0  0  0  0  0  0  0  0  0
    1.3819   -1.7224    0.0000 N   0  0  0  0  0  0  0  0  0  0  0  0
    1.1270   -2.5070    0.0000 C   0  0  0  0  0  0  0  0  0  0  0  0
    0.3020   -2.5070    0.0000 C   0  0  0  0  0  0  0  0  0  0  0  0
    0.0470   -1.7224    0.0000 N   0  0  0  0  0  0  0  0  0  0  0  0
   -0.7376   -1.4675    0.0000 C   0  0  0  0  0  0  0  0  0  0  0  0
   -1.3507   -2.0195    0.0000 C   0  0  0  0  0  0  0  0  0  0  0  0
   -2.1353   -1.7646    0.0000 C   0  0  0  0  0  0  0  0  0  0  0  0
   -2.3068   -0.9576    0.0000 C   0  0  0  0  0  0  0  0  0  0  0  0
   -1.6937   -0.4056    0.0000 C   0  0  0  0  0  0  0  0  0  0  0  0
   -0.9091   -0.6605    0.0000 C   0  0  0  0  0  0  0  0  0  0  0  0
  1  2  2  0  0  0  0
  2  3  1  0  0  0  0
  3  4  1  0  0  0  0
  4  5  1  0  0  0  0
  5  6  1  0  0  0  0
  2  6  1  0  0  0  0
  6  7  1  0  0  0  0
  7  8  2  0  0  0  0
  8  9  1  0  0  0  0
  9 10  2  0  0  0  0
 10 11  1  0  0  0  0
 11 12  2  0  0  0  0
  7 12  1  0  0  0  0
M  END
>  <Catalog ID>
Z1201621797

>  <PlateID>
1198308-R-SPFL-11

>  <Well>
C11

>  <MW (desalted)>
162.189

>  <ClogP>
0.683

>  <HBD>
1

>  <TPSA>
32.340

>  <RotBonds>
1

$$$$

            

 14 14  0  0  0  0            999 V2000
    0.0000    0.0000    0.0000 Cl  0  0  0  0  0  0  0  0  0  0  0  0
    2.6158    2.7701    0.0000 C   0  0  0  0  0  0  0  0  0  0  0  0
    2.6158    1.9451    0.0000 C   0  0  0  0  0  0  0  0  0  0  0  0
    3.2832    1.4602    0.0000 N   0  0  0  0  0  0  0  0  0  0  0  0
    3.0283    0.6756    0.0000 C   0  0  0  0  0  0  0  0  0  0  0  0
    3.5132    0.0082    0.0000 C   0  0  0  0  0  0  0  0  0  0  0  0
    3.1776   -0.7455    0.0000 C   0  0  0  0  0  0  0  0  0  0  0  0
    3.6625   -1.4129    0.0000 C   0  0  0  0  0  0  0  0  0  0  0  0
    3.3270   -2.1666    0.0000 C   0  0  0  0  0  0  0  0  0  0  0  0
    2.5065   -2.2529    0.0000 C   0  0  0  0  0  0  0  0  0  0  0  0
    2.0216   -1.5854    0.0000 N   0  0  0  0  0  0  0  0  0  0  0  0
    2.3571   -0.8317    0.0000 C   0  0  0  0  0  0  0  0  0  0  0  0
    2.2033    0.6756    0.0000 N   0  0  0  0  0  0  0  0  0  0  0  0
    1.9483    1.4602    0.0000 O   0  0  0  0  0  0  0  0  0  0  0  0
  2  3  1  0  0  0  0
  3  4  2  0  0  0  0
  4  5  1  0  0  0  0
  5  6  1  0  0  0  0
  6  7  1  0  0  0  0
  7  8  1  0  0  0  0
  8  9  1  0  0  0  0
  9 10  1  0  0  0  0
 10 11  1  0  0  0  0
 11 12  1  0  0  0  0
  7 12  1  0  0  0  0
  5 13  2  0  0  0  0
 13 14  1  0  0  0  0
  3 14  1  0  0  0  0
M  END
>  <Catalog ID>
Z1160899507

>  <PlateID>
1198308-R-SPFL-11

>  <Well>
D02

>  <MW (desalted)>
181.235

>  <ClogP>
0.263

>  <HBD>
1

>  <TPSA>
50.950

>  <RotBonds>
2

$$$$

            

 13 14  0  0  0  0            999 V2000
    1.0146   -1.7070    0.0000 C   0  0  0  0  0  0  0  0  0  0  0  0
    1.2695   -0.9224    0.0000 C   0  0  0  0  0  0  0  0  0  0  0  0
    0.7846   -0.2549    0.0000 N   0  0  0  0  0  0  0  0  0  0  0  0
    1.2695    0.4125    0.0000 N   0  0  0  0  0  0  0  0  0  0  0  0
    1.0146    1.1971    0.0000 C   0  0  0  0  0  0  0  0  0  0  0  0
    2.0542    0.1576    0.0000 C   0  0  0  0  0  0  0  0  0  0  0  0
    2.8388    0.4125    0.0000 S   0  0  0  0  0  0  0  0  0  0  0  0
    3.3237   -0.2549    0.0000 C   0  0  0  0  0  0  0  0  0  0  0  0
    2.8388   -0.9224    0.0000 C   0  0  0  0  0  0  0  0  0  0  0  0
    2.0542   -0.6674    0.0000 C   0  0  0  0  0  0  0  0  0  0  0  0
    4.1487   -0.2549    0.0000 C   0  0  0  0  0  0  0  0  0  0  0  0
    4.5612    0.4595    0.0000 O   0  0  0  0  0  0  0  0  0  0  0  0
    4.5612   -0.9694    0.0000 O   0  0  0  0  0  0  0  0  0  0  0  0
  1  2  1  0  0  0  0
  2  3  2  0  0  0  0
  3  4  1  0  0  0  0
  4  5  1  0  0  0  0
  4  6  1  0  0  0  0
  6  7  1  0  0  0  0
  7  8  1  0  0  0  0
  8  9  2  0  0  0  0
  9 10  1  0  0  0  0
  2 10  1  0  0  0  0
  6 10  2  0  0  0  0
  8 11  1  0  0  0  0
 11 12  2  0  0  0  0
 11 13  1  0  0  0  0
M  END
>  <Catalog ID>
Z220382864

>  <PlateID>
1198308-R-SPFL-11

>  <Well>
D03

>  <MW (desalted)>
196.226

>  <ClogP>
1.746

>  <HBD>
1

>  <TPSA>
55.120

>  <RotBonds>
1

$$$$

            

 15 14  0  0  0  0            999 V2000
    0.0000    0.0000    0.0000 Cl  0  0  0  0  0  0  0  0  0  0  0  0
    2.0036    0.0000    0.0000 Cl  0  0  0  0  0  0  0  0  0  0  0  0
   -1.1541   -5.3625    0.0000 N   0  0  0  0  0  0  0  0  0  0  0  0
   -1.1541   -4.5375    0.0000 C   0  0  0  0  0  0  0  0  0  0  0  0
   -0.4397   -4.1250    0.0000 C   0  0  0  0  0  0  0  0  0  0  0  0
   -0.4397   -3.3000    0.0000 N   0  0  0  0  0  0  0  0  0  0  0  0
   -1.1541   -2.8875    0.0000 C   0  0  0  0  0  0  0  0  0  0  0  0
   -1.1541   -2.0625    0.0000 C   0  0  0  0  0  0  0  0  0  0  0  0
   -0.4397   -1.6500    0.0000 C   0  0  0  0  0  0  0  0  0  0  0  0
    0.2748   -2.0625    0.0000 C   0  0  0  0  0  0  0  0  0  0  0  0
    0.9893   -1.6500    0.0000 C   0  0  0  0  0  0  0  0  0  0  0  0
    1.7037   -2.0625    0.0000 C   0  0  0  0  0  0  0  0  0  0  0  0
    1.7037   -2.8875    0.0000 C   0  0  0  0  0  0  0  0  0  0  0  0
    0.9893   -3.3000    0.0000 C   0  0  0  0  0  0  0  0  0  0  0  0
    0.2748   -2.8875    0.0000 C   0  0  0  0  0  0  0  0  0  0  0  0
  3  4  1  0  0  0  0
  4  5  1  0  0  0  0
  5  6  1  0  0  0  0
  6  7  1  0  0  0  0
  7  8  1  0  0  0  0
  8  9  1  0  0  0  0
  9 10  1  0  0  0  0
 10 11  2  0  0  0  0
 11 12  1  0  0  0  0
 12 13  2  0  0  0  0
 13 14  1  0  0  0  0
 14 15  2  0  0  0  0
  6 15  1  0  0  0  0
 10 15  1  0  0  0  0
M  END
>  <Catalog ID>
Z1217910572

>  <PlateID>
1198308-R-SPFL-11

>  <Well>
D04

>  <MW (desalted)>
176.258

>  <ClogP>
2.225

>  <HBD>
1

>  <TPSA>
29.260

>  <RotBonds>
2

$$$$

            

 15 16  0  0  0  0            999 V2000
    1.4289    0.0000    0.0000 O   0  0  0  0  0  0  0  0  0  0  0  0
    2.1434   -0.4125    0.0000 C   0  0  0  0  0  0  0  0  0  0  0  0
    2.1434   -1.2375    0.0000 C   0  0  0  0  0  0  0  0  0  0  0  0
    2.8579   -1.6500    0.0000 C   0  0  0  0  0  0  0  0  0  0  0  0
    2.8579   -2.4750    0.0000 C   0  0  0  0  0  0  0  0  0  0  0  0
    2.1434   -2.8875    0.0000 N   0  0  0  0  0  0  0  0  0  0  0  0
    2.1434   -3.7125    0.0000 C   0  0  0  0  0  0  0  0  0  0  0  0
    1.4289   -4.1250    0.0000 C   0  0  0  0  0  0  0  0  0  0  0  0
    1.4289   -4.9500    0.0000 C   0  0  0  0  0  0  0  0  0  0  0  0
    0.7145   -5.3625    0.0000 C   0  0  0  0  0  0  0  0  0  0  0  0
   -0.0000   -4.9500    0.0000 C   0  0  0  0  0  0  0  0  0  0  0  0
    0.0000   -4.1250    0.0000 C   0  0  0  0  0  0  0  0  0  0  0  0
    0.7145   -3.7125    0.0000 C   0  0  0  0  0  0  0  0  0  0  0  0
    1.4289   -2.4750    0.0000 C   0  0  0  0  0  0  0  0  0  0  0  0
    1.4289   -1.6500    0.0000 C   0  0  0  0  0  0  0  0  0  0  0  0
  1  2  1  0  0  0  0
  2  3  1  0  0  0  0
  3  4  1  0  0  0  0
  4  5  1  0  0  0  0
  5  6  1  0  0  0  0
  6  7  1  0  0  0  0
  7  8  1  0  0  0  0
  8  9  2  0  0  0  0
  9 10  1  0  0  0  0
 10 11  2  0  0  0  0
 11 12  1  0  0  0  0
 12 13  2  0  0  0  0
  8 13  1  0  0  0  0
  6 14  1  0  0  0  0
 14 15  1  0  0  0  0
  3 15  1  0  0  0  0
M  END
>  <Catalog ID>
Z416877378

>  <PlateID>
1198308-R-SPFL-11

>  <Well>
D05

>  <MW (desalted)>
205.296

>  <ClogP>
1.701

>  <HBD>
1

>  <TPSA>
23.470

>  <RotBonds>
3

$$$$

            

 14 15  0  0  0  0            999 V2000
    0.7145   -0.4125    0.0000 C   0  0  0  0  0  0  0  0  0  0  0  0
    0.7145   -1.2375    0.0000 C   0  0  0  0  0  0  0  0  0  0  0  0
    1.4289   -1.6500    0.0000 C   0  0  0  0  0  0  0  0  0  0  0  0
    1.4289   -2.4750    0.0000 C   0  0  0  0  0  0  0  0  0  0  0  0
    0.7145   -2.8875    0.0000 C   0  0  0  0  0  0  0  0  0  0  0  0
    0.0000   -2.4750    0.0000 C   0  0  0  0  0  0  0  0  0  0  0  0
    0.0000   -1.6500    0.0000 C   0  0  0  0  0  0  0  0  0  0  0  0
    0.7145   -3.7125    0.0000 N   0  0  0  0  0  0  0  0  0  0  0  0
    1.4289   -4.1250    0.0000 C   0  0  0  0  0  0  0  0  0  0  0  0
    1.4289   -4.9500    0.0000 C   0  0  0  0  0  0  0  0  0  0  0  0
    0.7145   -5.3625    0.0000 C   0  0  0  0  0  0  0  0  0  0  0  0
    0.7145   -6.1875    0.0000 N   0  0  0  0  0  0  0  0  0  0  0  0
    0.0000   -4.9500    0.0000 C   0  0  0  0  0  0  0  0  0  0  0  0
    0.0000   -4.1250    0.0000 C   0  0  0  0  0  0  0  0  0  0  0  0
  1  2  1  0  0  0  0
  2  3  1  0  0  0  0
  3  4  1  0  0  0  0
  4  5  1  0  0  0  0
  5  6  1  0  0  0  0
  6  7  1  0  0  0  0
  2  7  1  0  0  0  0
  5  8  1  0  0  0  0
  8  9  1  0  0  0  0
  9 10  1  0  0  0  0
 10 11  1  0  0  0  0
 11 12  1  0  0  0  0
 11 13  1  0  0  0  0
 13 14  1  0  0  0  0
  8 14  1  0  0  0  0
M  END
>  <Catalog ID>
Z295882402

>  <PlateID>
1198308-R-SPFL-11

>  <Well>
D06

>  <MW (desalted)>
196.332

>  <ClogP>
1.854

>  <HBD>
1

>  <TPSA>
29.260

>  <RotBonds>
1

$$$$

            

 10 11  0  0  0  0            999 V2000
    1.6689   -2.2748    0.0000 C   0  0  0  0  0  0  0  0  0  0  0  0
    0.8439   -2.2748    0.0000 C   0  0  0  0  0  0  0  0  0  0  0  0
    0.5890   -1.4901    0.0000 N   0  0  0  0  0  0  0  0  0  0  0  0
    1.2564   -1.0052    0.0000 C   0  0  0  0  0  0  0  0  0  0  0  0
    1.9239   -1.4901    0.0000 C   0  0  0  0  0  0  0  0  0  0  0  0
    1.2564   -0.1802    0.0000 C   0  0  0  0  0  0  0  0  0  0  0  0
    0.5890    0.3047    0.0000 C   0  0  0  0  0  0  0  0  0  0  0  0
    0.8439    1.0893    0.0000 C   0  0  0  0  0  0  0  0  0  0  0  0
    1.6689    1.0893    0.0000 C   0  0  0  0  0  0  0  0  0  0  0  0
    1.9239    0.3047    0.0000 S   0  0  0  0  0  0  0  0  0  0  0  0
  1  2  1  0  0  0  0
  2  3  1  0  0  0  0
  3  4  1  0  0  0  0
  4  5  1  0  0  0  0
  1  5  1  0  0  0  0
  4  6  1  0  0  0  0
  6  7  2  0  0  0  0
  7  8  1  0  0  0  0
  8  9  2  0  0  0  0
  9 10  1  0  0  0  0
  6 10  1  0  0  0  0
M  END
>  <Catalog ID>
Z57039610

>  <PlateID>
1198308-R-SPFL-11

>  <Well>
D07

>  <MW (desalted)>
153.245

>  <ClogP>
1.580

>  <HBD>
1

>  <TPSA>
12.030

>  <RotBonds>
1

$$$$

            

 13 13  0  0  0  0            999 V2000
    0.0000    0.0000    0.0000 Cl  0  0  0  0  0  0  0  0  0  0  0  0
    3.0716    2.4924    0.0000 N   0  0  0  0  0  0  0  0  0  0  0  0
    3.0716    1.6674    0.0000 C   0  0  0  0  0  0  0  0  0  0  0  0
    3.7861    1.2549    0.0000 C   0  0  0  0  0  0  0  0  0  0  0  0
    3.7861    0.4299    0.0000 C   0  0  0  0  0  0  0  0  0  0  0  0
    3.0716    0.0174    0.0000 C   0  0  0  0  0  0  0  0  0  0  0  0
    2.3571    0.4299    0.0000 C   0  0  0  0  0  0  0  0  0  0  0  0
    2.3571    1.2549    0.0000 C   0  0  0  0  0  0  0  0  0  0  0  0
    3.0716   -0.8076    0.0000 C   0  0  0  0  0  0  0  0  0  0  0  0
    3.7391   -1.2925    0.0000 N   0  0  0  0  0  0  0  0  0  0  0  0
    3.4841   -2.0771    0.0000 C   0  0  0  0  0  0  0  0  0  0  0  0
    2.6591   -2.0771    0.0000 N   0  0  0  0  0  0  0  0  0  0  0  0
    2.4042   -1.2925    0.0000 O   0  0  0  0  0  0  0  0  0  0  0  0
  2  3  1  0  0  0  0
  3  4  1  0  0  0  0
  4  5  1  0  0  0  0
  5  6  1  0  0  0  0
  6  7  1  0  0  0  0
  7  8  1  0  0  0  0
  3  8  1  0  0  0  0
  6  9  1  0  0  0  0
  9 10  2  0  0  0  0
 10 11  1  0  0  0  0
 11 12  2  0  0  0  0
 12 13  1  0  0  0  0
  9 13  1  0  0  0  0
M  END
>  <Catalog ID>
Z1695797925

>  <PlateID>
1198308-R-SPFL-11

>  <Well>
D08

>  <MW (desalted)>
167.208

>  <ClogP>
-0.103

>  <HBD>
1

>  <TPSA>
64.940

>  <RotBonds>
1

$$$$

            

 12 12  0  0  0  0            999 V2000
    0.0000    0.0000    0.0000 Cl  0  0  0  0  0  0  0  0  0  0  0  0
    2.3571    0.7500    0.0000 N   0  0  0  0  0  0  0  0  0  0  0  0
    3.0716    0.3375    0.0000 C   0  0  0  0  0  0  0  0  0  0  0  0
    3.7861    0.7500    0.0000 C   0  0  0  0  0  0  0  0  0  0  0  0
    4.5006    0.3375    0.0000 C   0  0  0  0  0  0  0  0  0  0  0  0
    5.2150    0.7500    0.0000 C   0  0  0  0  0  0  0  0  0  0  0  0
    5.9295    0.3375    0.0000 C   0  0  0  0  0  0  0  0  0  0  0  0
    5.9295   -0.4875    0.0000 C   0  0  0  0  0  0  0  0  0  0  0  0
    5.2150   -0.9000    0.0000 O   0  0  0  0  0  0  0  0  0  0  0  0
    4.5006   -0.4875    0.0000 C   0  0  0  0  0  0  0  0  0  0  0  0
    3.7861   -0.9000    0.0000 C   0  0  0  0  0  0  0  0  0  0  0  0
    3.0716   -0.4875    0.0000 N   0  0  0  0  0  0  0  0  0  0  0  0
  2  3  1  0  0  0  0
  3  4  2  0  0  0  0
  4  5  1  0  0  0  0
  5  6  1  0  0  0  0
  6  7  1  0  0  0  0
  7  8  1  0  0  0  0
  8  9  1  0  0  0  0
  9 10  1  0  0  0  0
  5 10  2  0  0  0  0
 10 11  1  0  0  0  0
 11 12  2  0  0  0  0
  3 12  1  0  0  0  0
M  END
>  <Catalog ID>
Z2235790796

>  <PlateID>
1198308-R-SPFL-11

>  <Well>
D09

>  <MW (desalted)>
150.178

>  <ClogP>
1.306

>  <HBD>
1

>  <TPSA>
48.140

>  <RotBonds>
0

$$$$

            

 10 10  0  0  0  0            999 V2000
   -0.8612    3.5893    0.0000 O   0  0  0  0  0  0  0  0  0  0  0  0
   -0.1467    3.1768    0.0000 C   0  0  0  0  0  0  0  0  0  0  0  0
    0.5678    3.5893    0.0000 O   0  0  0  0  0  0  0  0  0  0  0  0
   -0.1467    2.3518    0.0000 C   0  0  0  0  0  0  0  0  0  0  0  0
    0.5678    1.9393    0.0000 C   0  0  0  0  0  0  0  0  0  0  0  0
    0.5678    1.1143    0.0000 C   0  0  0  0  0  0  0  0  0  0  0  0
    1.2352    0.6294    0.0000 C   0  0  0  0  0  0  0  0  0  0  0  0
    0.9803   -0.1553    0.0000 C   0  0  0  0  0  0  0  0  0  0  0  0
    0.1553   -0.1553    0.0000 O   0  0  0  0  0  0  0  0  0  0  0  0
   -0.0997    0.6294    0.0000 N   0  0  0  0  0  0  0  0  0  0  0  0
  1  2  1  0  0  0  0
  2  3  2  0  0  0  0
  2  4  1  0  0  0  0
  4  5  1  0  0  0  0
  5  6  1  0  0  0  0
  6  7  1  0  0  0  0
  7  8  2  0  0  0  0
  8  9  1  0  0  0  0
  9 10  1  0  0  0  0
  6 10  2  0  0  0  0
M  END
>  <Catalog ID>
Z1198279853

>  <PlateID>
1198308-R-SPFL-11

>  <Well>
D10

>  <MW (desalted)>
141.125

>  <ClogP>
-0.348

>  <HBD>
1

>  <TPSA>
63.330

>  <RotBonds>
3

$$$$

            

 11 12  0  0  0  0            999 V2000
   -0.3279   -0.8192    0.0000 O   0  0  0  0  0  0  0  0  0  0  0  0
    0.4474   -0.5371    0.0000 C   0  0  0  0  0  0  0  0  0  0  0  0
    1.0793   -1.0674    0.0000 C   0  0  0  0  0  0  0  0  0  0  0  0
    1.4918   -1.7818    0.0000 C   0  0  0  0  0  0  0  0  0  0  0  0
    0.6668   -1.7818    0.0000 C   0  0  0  0  0  0  0  0  0  0  0  0
    1.7113   -0.5371    0.0000 C   0  0  0  0  0  0  0  0  0  0  0  0
    1.5681    0.2754    0.0000 C   0  0  0  0  0  0  0  0  0  0  0  0
    2.2001    0.8057    0.0000 C   0  0  0  0  0  0  0  0  0  0  0  0
    2.9753    0.5235    0.0000 C   0  0  0  0  0  0  0  0  0  0  0  0
    3.1186   -0.2889    0.0000 C   0  0  0  0  0  0  0  0  0  0  0  0
    2.4866   -0.8192    0.0000 C   0  0  0  0  0  0  0  0  0  0  0  0
  1  2  1  0  0  0  0
  2  3  1  0  0  0  0
  3  4  1  0  0  0  0
  4  5  1  0  0  0  0
  3  5  1  0  0  0  0
  3  6  1  0  0  0  0
  6  7  2  0  0  0  0
  7  8  1  0  0  0  0
  8  9  2  0  0  0  0
  9 10  1  0  0  0  0
 10 11  2  0  0  0  0
  6 11  1  0  0  0  0
M  END
>  <Catalog ID>
Z1033255944

>  <PlateID>
1198308-R-SPFL-11

>  <Well>
D11

>  <MW (desalted)>
148.202

>  <ClogP>
1.767

>  <HBD>
1

>  <TPSA>
20.230

>  <RotBonds>
2

$$$$

            

 10 10  0  0  0  0            999 V2000
    0.5678    1.9393    0.0000 C   0  0  0  0  0  0  0  0  0  0  0  0
    0.5678    1.1143    0.0000 C   0  0  0  0  0  0  0  0  0  0  0  0
    1.2352    0.6294    0.0000 C   0  0  0  0  0  0  0  0  0  0  0  0
    0.9803   -0.1553    0.0000 C   0  0  0  0  0  0  0  0  0  0  0  0
    0.1553   -0.1553    0.0000 N   0  0  0  0  0  0  0  0  0  0  0  0
   -0.0997    0.6294    0.0000 N   0  0  0  0  0  0  0  0  0  0  0  0
   -0.8843    0.8843    0.0000 C   0  0  0  0  0  0  0  0  0  0  0  0
    1.4652   -0.8227    0.0000 C   0  0  0  0  0  0  0  0  0  0  0  0
    2.2857   -0.7365    0.0000 O   0  0  0  0  0  0  0  0  0  0  0  0
    1.1296   -1.5764    0.0000 O   0  0  0  0  0  0  0  0  0  0  0  0
  1  2  1  0  0  0  0
  2  3  2  0  0  0  0
  3  4  1  0  0  0  0
  4  5  2  0  0  0  0
  5  6  1  0  0  0  0
  2  6  1  0  0  0  0
  6  7  1  0  0  0  0
  4  8  1  0  0  0  0
  8  9  2  0  0  0  0
  8 10  1  0  0  0  0
M  END
>  <Catalog ID>
Z666143552

>  <PlateID>
1198308-R-SPFL-11

>  <Well>
E02

>  <MW (desalted)>
140.140

>  <ClogP>
0.530

>  <HBD>
1

>  <TPSA>
55.120

>  <RotBonds>
1

$$$$

            

 17 17  0  0  0  0            999 V2000
    0.0000    0.0000    0.0000 Cl  0  0  0  0  0  0  0  0  0  0  0  0
    3.1968    0.9797    0.0000 C   0  0  0  0  0  0  0  0  0  0  0  0
    3.9113    0.5672    0.0000 C   0  0  0  0  0  0  0  0  0  0  0  0
    4.6257    0.9797    0.0000 N   0  0  0  0  0  0  0  0  0  0  0  0
    5.3402    0.5672    0.0000 C   0  0  0  0  0  0  0  0  0  0  0  0
    6.0547    0.9797    0.0000 C   0  0  0  0  0  0  0  0  0  0  0  0
    6.7692    0.5672    0.0000 C   0  0  0  0  0  0  0  0  0  0  0  0
    6.7692   -0.2578    0.0000 C   0  0  0  0  0  0  0  0  0  0  0  0
    6.0547   -0.6703    0.0000 C   0  0  0  0  0  0  0  0  0  0  0  0
    5.3402   -0.2578    0.0000 C   0  0  0  0  0  0  0  0  0  0  0  0
    4.6257   -0.6703    0.0000 C   0  0  0  0  0  0  0  0  0  0  0  0
    4.6257   -1.4953    0.0000 C   0  0  0  0  0  0  0  0  0  0  0  0
    3.9113   -0.2578    0.0000 C   0  0  0  0  0  0  0  0  0  0  0  0
    3.1968   -0.6703    0.0000 C   0  0  0  0  0  0  0  0  0  0  0  0
    2.4823   -0.2578    0.0000 C   0  0  0  0  0  0  0  0  0  0  0  0
    1.7679   -0.6703    0.0000 O   0  0  0  0  0  0  0  0  0  0  0  0
    2.4823    0.5672    0.0000 O   0  0  0  0  0  0  0  0  0  0  0  0
  2  3  1  0  0  0  0
  3  4  2  0  0  0  0
  4  5  1  0  0  0  0
  5  6  2  0  0  0  0
  6  7  1  0  0  0  0
  7  8  2  0  0  0  0
  8  9  1  0  0  0  0
  9 10  2  0  0  0  0
  5 10  1  0  0  0  0
 10 11  1  0  0  0  0
 11 12  1  0  0  0  0
 11 13  2  0  0  0  0
  3 13  1  0  0  0  0
 13 14  1  0  0  0  0
 14 15  1  0  0  0  0
 15 16  2  0  0  0  0
 15 17  1  0  0  0  0
M  END
>  <Catalog ID>
Z48951345

>  <PlateID>
1198308-R-SPFL-11

>  <Well>
E03

>  <MW (desalted)>
215.248

>  <ClogP>
2.199

>  <HBD>
1

>  <TPSA>
50.190

>  <RotBonds>
2

$$$$

            

 10 11  0  0  0  0            999 V2000
    4.0668    2.3479    0.0000 Cl  0  0  0  0  0  0  0  0  0  0  0  0
    3.3523    1.9354    0.0000 C   0  0  0  0  0  0  0  0  0  0  0  0
    3.3523    1.1104    0.0000 C   0  0  0  0  0  0  0  0  0  0  0  0
    2.6378    0.6979    0.0000 N   0  0  0  0  0  0  0  0  0  0  0  0
    1.9233    1.1104    0.0000 C   0  0  0  0  0  0  0  0  0  0  0  0
    1.1387    0.8555    0.0000 N   0  0  0  0  0  0  0  0  0  0  0  0
    0.6538    1.5229    0.0000 C   0  0  0  0  0  0  0  0  0  0  0  0
    1.1387    2.1904    0.0000 C   0  0  0  0  0  0  0  0  0  0  0  0
    1.9233    1.9354    0.0000 C   0  0  0  0  0  0  0  0  0  0  0  0
    2.6378    2.3479    0.0000 C   0  0  0  0  0  0  0  0  0  0  0  0
  1  2  1  0  0  0  0
  2  3  2  0  0  0  0
  3  4  1  0  0  0  0
  4  5  2  0  0  0  0
  5  6  1  0  0  0  0
  6  7  1  0  0  0  0
  7  8  2  0  0  0  0
  8  9  1  0  0  0  0
  5  9  1  0  0  0  0
  9 10  2  0  0  0  0
  2 10  1  0  0  0  0
M  END
>  <Catalog ID>
Z1198169605

>  <PlateID>
1198308-R-SPFL-11

>  <Well>
E04

>  <MW (desalted)>
152.581

>  <ClogP>
1.972

>  <HBD>
1

>  <TPSA>
28.680

>  <RotBonds>
0

$$$$

            

 14 13  0  0  0  0            999 V2000
    0.0000    0.0000    0.0000 Cl  0  0  0  0  0  0  0  0  0  0  0  0
    2.0036    0.0000    0.0000 Cl  0  0  0  0  0  0  0  0  0  0  0  0
    0.7145   -5.3625    0.0000 C   0  0  0  0  0  0  0  0  0  0  0  0
   -0.0000   -5.7750    0.0000 C   0  0  0  0  0  0  0  0  0  0  0  0
   -0.7145   -5.3625    0.0000 N   0  0  0  0  0  0  0  0  0  0  0  0
   -0.7145   -4.5375    0.0000 C   0  0  0  0  0  0  0  0  0  0  0  0
   -0.0000   -4.1250    0.0000 C   0  0  0  0  0  0  0  0  0  0  0  0
    0.7145   -4.5375    0.0000 C   0  0  0  0  0  0  0  0  0  0  0  0
    0.0000   -3.3000    0.0000 C   0  0  0  0  0  0  0  0  0  0  0  0
   -0.7145   -2.8875    0.0000 C   0  0  0  0  0  0  0  0  0  0  0  0
   -0.7145   -2.0625    0.0000 C   0  0  0  0  0  0  0  0  0  0  0  0
    0.0000   -1.6500    0.0000 C   0  0  0  0  0  0  0  0  0  0  0  0
    0.7145   -2.0625    0.0000 C   0  0  0  0  0  0  0  0  0  0  0  0
    0.7145   -2.8875    0.0000 N   0  0  0  0  0  0  0  0  0  0  0  0
  3  4  1  0  0  0  0
  4  5  1  0  0  0  0
  5  6  1  0  0  0  0
  6  7  1  0  0  0  0
  7  8  1  0  0  0  0
  3  8  1  0  0  0  0
  7  9  1  0  0  0  0
  9 10  2  0  0  0  0
 10 11  1  0  0  0  0
 11 12  2  0  0  0  0
 12 13  1  0  0  0  0
 13 14  2  0  0  0  0
  9 14  1  0  0  0  0
M  END
>  <Catalog ID>
Z2211231363

>  <PlateID>
1198308-R-SPFL-11

>  <Well>
E05

>  <MW (desalted)>
162.232

>  <ClogP>
0.996

>  <HBD>
1

>  <TPSA>
24.920

>  <RotBonds>
1

$$$$

            

 12 12  0  0  0  0            999 V2000
    0.5678    1.9393    0.0000 C   0  0  0  0  0  0  0  0  0  0  0  0
    0.5678    1.1143    0.0000 C   0  0  0  0  0  0  0  0  0  0  0  0
    1.2352    0.6294    0.0000 N   0  0  0  0  0  0  0  0  0  0  0  0
    0.9803   -0.1553    0.0000 O   0  0  0  0  0  0  0  0  0  0  0  0
    0.1553   -0.1553    0.0000 C   0  0  0  0  0  0  0  0  0  0  0  0
   -0.3297   -0.8227    0.0000 C   0  0  0  0  0  0  0  0  0  0  0  0
   -0.0997    0.6294    0.0000 C   0  0  0  0  0  0  0  0  0  0  0  0
   -0.8843    0.8843    0.0000 C   0  0  0  0  0  0  0  0  0  0  0  0
   -1.4974    0.3323    0.0000 C   0  0  0  0  0  0  0  0  0  0  0  0
   -2.2820    0.5872    0.0000 C   0  0  0  0  0  0  0  0  0  0  0  0
   -2.8951    0.0352    0.0000 O   0  0  0  0  0  0  0  0  0  0  0  0
   -2.4535    1.3942    0.0000 O   0  0  0  0  0  0  0  0  0  0  0  0
  1  2  1  0  0  0  0
  2  3  2  0  0  0  0
  3  4  1  0  0  0  0
  4  5  1  0  0  0  0
  5  6  1  0  0  0  0
  5  7  2  0  0  0  0
  2  7  1  0  0  0  0
  7  8  1  0  0  0  0
  8  9  1  0  0  0  0
  9 10  1  0  0  0  0
 10 11  2  0  0  0  0
 10 12  1  0  0  0  0
M  END
>  <Catalog ID>
Z57981094

>  <PlateID>
1198308-R-SPFL-11

>  <Well>
E06

>  <MW (desalted)>
169.178

>  <ClogP>
0.090

>  <HBD>
1

>  <TPSA>
63.330

>  <RotBonds>
3

$$$$

            

 12 13  0  0  0  0            999 V2000
    3.4479    1.4620    0.0000 C   0  0  0  0  0  0  0  0  0  0  0  0
    3.6315    0.6577    0.0000 N   0  0  0  0  0  0  0  0  0  0  0  0
    4.4358    0.4742    0.0000 C   0  0  0  0  0  0  0  0  0  0  0  0
    4.7938   -0.2691    0.0000 C   0  0  0  0  0  0  0  0  0  0  0  0
    4.4358   -1.0124    0.0000 C   0  0  0  0  0  0  0  0  0  0  0  0
    3.6315   -1.1960    0.0000 N   0  0  0  0  0  0  0  0  0  0  0  0
    2.9865   -0.6816    0.0000 C   0  0  0  0  0  0  0  0  0  0  0  0
    2.2720   -1.0941    0.0000 C   0  0  0  0  0  0  0  0  0  0  0  0
    1.5575   -0.6816    0.0000 C   0  0  0  0  0  0  0  0  0  0  0  0
    1.5575    0.1434    0.0000 C   0  0  0  0  0  0  0  0  0  0  0  0
    2.2720    0.5559    0.0000 C   0  0  0  0  0  0  0  0  0  0  0  0
    2.9865    0.1434    0.0000 C   0  0  0  0  0  0  0  0  0  0  0  0
  1  2  1  0  0  0  0
  2  3  1  0  0  0  0
  3  4  1  0  0  0  0
  4  5  1  0  0  0  0
  5  6  1  0  0  0  0
  6  7  1  0  0  0  0
  7  8  2  0  0  0  0
  8  9  1  0  0  0  0
  9 10  2  0  0  0  0
 10 11  1  0  0  0  0
 11 12  2  0  0  0  0
  2 12  1  0  0  0  0
  7 12  1  0  0  0  0
M  END
>  <Catalog ID>
Z1198237679

>  <PlateID>
1198308-R-SPFL-11

>  <Well>
E07

>  <MW (desalted)>
162.232

>  <ClogP>
2.001

>  <HBD>
1

>  <TPSA>
15.270

>  <RotBonds>
0

$$$$

            

 12 13  0  0  0  0            999 V2000
    4.9502    2.4825    0.0000 C   0  0  0  0  0  0  0  0  0  0  0  0
    4.4358    1.8374    0.0000 N   0  0  0  0  0  0  0  0  0  0  0  0
    4.7938    1.0941    0.0000 C   0  0  0  0  0  0  0  0  0  0  0  0
    4.4358    0.3508    0.0000 C   0  0  0  0  0  0  0  0  0  0  0  0
    3.6315    0.1673    0.0000 N   0  0  0  0  0  0  0  0  0  0  0  0
    2.9865    0.6816    0.0000 C   0  0  0  0  0  0  0  0  0  0  0  0
    2.2720    0.2691    0.0000 C   0  0  0  0  0  0  0  0  0  0  0  0
    1.5575    0.6816    0.0000 C   0  0  0  0  0  0  0  0  0  0  0  0
    1.5575    1.5066    0.0000 C   0  0  0  0  0  0  0  0  0  0  0  0
    2.2720    1.9191    0.0000 C   0  0  0  0  0  0  0  0  0  0  0  0
    2.9865    1.5066    0.0000 C   0  0  0  0  0  0  0  0  0  0  0  0
    3.6315    2.0210    0.0000 C   0  0  0  0  0  0  0  0  0  0  0  0
  1  2  1  0  0  0  0
  2  3  1  0  0  0  0
  3  4  1  0  0  0  0
  4  5  1  0  0  0  0
  5  6  1  0  0  0  0
  6  7  2  0  0  0  0
  7  8  1  0  0  0  0
  8  9  2  0  0  0  0
  9 10  1  0  0  0  0
 10 11  2  0  0  0  0
  6 11  1  0  0  0  0
 11 12  1  0  0  0  0
  2 12  1  0  0  0  0
M  END
>  <Catalog ID>
Z1098230405

>  <PlateID>
1198308-R-SPFL-11

>  <Well>
E08

>  <MW (desalted)>
162.232

>  <ClogP>
1.405

>  <HBD>
1

>  <TPSA>
15.270

>  <RotBonds>
0

$$$$

            

 15 15  0  0  0  0            999 V2000
    0.0000    0.0000    0.0000 Cl  0  0  0  0  0  0  0  0  0  0  0  0
    4.7093    2.7495    0.0000 C   0  0  0  0  0  0  0  0  0  0  0  0
    4.7093    1.9245    0.0000 C   0  0  0  0  0  0  0  0  0  0  0  0
    5.3768    1.4396    0.0000 N   0  0  0  0  0  0  0  0  0  0  0  0
    5.1218    0.6549    0.0000 O   0  0  0  0  0  0  0  0  0  0  0  0
    4.2968    0.6549    0.0000 C   0  0  0  0  0  0  0  0  0  0  0  0
    4.0419    1.4396    0.0000 N   0  0  0  0  0  0  0  0  0  0  0  0
    3.8119   -0.0125    0.0000 C   0  0  0  0  0  0  0  0  0  0  0  0
    4.1475   -0.7662    0.0000 C   0  0  0  0  0  0  0  0  0  0  0  0
    3.6625   -1.4336    0.0000 C   0  0  0  0  0  0  0  0  0  0  0  0
    2.8421   -1.3474    0.0000 C   0  0  0  0  0  0  0  0  0  0  0  0
    2.3571   -2.0148    0.0000 C   0  0  0  0  0  0  0  0  0  0  0  0
    2.6927   -2.7685    0.0000 N   0  0  0  0  0  0  0  0  0  0  0  0
    2.5065   -0.5937    0.0000 C   0  0  0  0  0  0  0  0  0  0  0  0
    2.9914    0.0737    0.0000 C   0  0  0  0  0  0  0  0  0  0  0  0
  2  3  1  0  0  0  0
  3  4  2  0  0  0  0
  4  5  1  0  0  0  0
  5  6  1  0  0  0  0
  6  7  2  0  0  0  0
  3  7  1  0  0  0  0
  6  8  1  0  0  0  0
  8  9  2  0  0  0  0
  9 10  1  0  0  0  0
 10 11  2  0  0  0  0
 11 12  1  0  0  0  0
 12 13  1  0  0  0  0
 11 14  1  0  0  0  0
 14 15  2  0  0  0  0
  8 15  1  0  0  0  0
M  END
>  <Catalog ID>
Z1473029613

>  <PlateID>
1198308-R-SPFL-11

>  <Well>
E09

>  <MW (desalted)>
189.214

>  <ClogP>
0.813

>  <HBD>
1

>  <TPSA>
64.940

>  <RotBonds>
2

$$$$

            

 12 11  0  0  0  0            999 V2000
    0.0000    0.0000    0.0000 Cl  0  0  0  0  0  0  0  0  0  0  0  0
    2.0036    0.0000    0.0000 Cl  0  0  0  0  0  0  0  0  0  0  0  0
   -2.0299   -2.4750    0.0000 N   0  0  0  0  0  0  0  0  0  0  0  0
   -1.2049   -2.4750    0.0000 C   0  0  0  0  0  0  0  0  0  0  0  0
   -0.7200   -1.8076    0.0000 C   0  0  0  0  0  0  0  0  0  0  0  0
    0.0647   -2.0625    0.0000 C   0  0  0  0  0  0  0  0  0  0  0  0
    0.7791   -1.6500    0.0000 C   0  0  0  0  0  0  0  0  0  0  0  0
    1.4936   -2.0625    0.0000 C   0  0  0  0  0  0  0  0  0  0  0  0
    1.4936   -2.8875    0.0000 N   0  0  0  0  0  0  0  0  0  0  0  0
    0.7791   -3.3000    0.0000 C   0  0  0  0  0  0  0  0  0  0  0  0
    0.0647   -2.8875    0.0000 C   0  0  0  0  0  0  0  0  0  0  0  0
   -0.7200   -3.1424    0.0000 C   0  0  0  0  0  0  0  0  0  0  0  0
  3  4  1  0  0  0  0
  4  5  1  0  0  0  0
  5  6  1  0  0  0  0
  6  7  2  0  0  0  0
  7  8  1  0  0  0  0
  8  9  2  0  0  0  0
  9 10  1  0  0  0  0
 10 11  2  0  0  0  0
  6 11  1  0  0  0  0
 11 12  1  0  0  0  0
  4 12  1  0  0  0  0
M  END
>  <Catalog ID>
Z2238944796

>  <PlateID>
1198308-R-SPFL-11

>  <Well>
E10

>  <MW (desalted)>
134.178

>  <ClogP>
-0.179

>  <HBD>
1

>  <TPSA>
38.910

>  <RotBonds>
0

$$$$

            

 14 15  0  0  0  0            999 V2000
    2.7512   -0.0616    0.0000 O   0  0  0  0  0  0  0  0  0  0  0  0
    2.0367   -0.4741    0.0000 C   0  0  0  0  0  0  0  0  0  0  0  0
    2.0367   -1.2991    0.0000 C   0  0  0  0  0  0  0  0  0  0  0  0
    2.7041   -1.7840    0.0000 N   0  0  0  0  0  0  0  0  0  0  0  0
    2.4492   -2.5687    0.0000 C   0  0  0  0  0  0  0  0  0  0  0  0
    1.6242   -2.5687    0.0000 C   0  0  0  0  0  0  0  0  0  0  0  0
    1.3693   -1.7840    0.0000 N   0  0  0  0  0  0  0  0  0  0  0  0
    0.5846   -1.5291    0.0000 C   0  0  0  0  0  0  0  0  0  0  0  0
    0.4131   -0.7221    0.0000 C   0  0  0  0  0  0  0  0  0  0  0  0
   -0.3715   -0.4672    0.0000 C   0  0  0  0  0  0  0  0  0  0  0  0
   -0.5430    0.3398    0.0000 C   0  0  0  0  0  0  0  0  0  0  0  0
    0.0701    0.8918    0.0000 C   0  0  0  0  0  0  0  0  0  0  0  0
    0.8547    0.6369    0.0000 C   0  0  0  0  0  0  0  0  0  0  0  0
    1.0262   -0.1701    0.0000 C   0  0  0  0  0  0  0  0  0  0  0  0
  1  2  1  0  0  0  0
  2  3  1  0  0  0  0
  3  4  2  0  0  0  0
  4  5  1  0  0  0  0
  5  6  2  0  0  0  0
  6  7  1  0  0  0  0
  3  7  1  0  0  0  0
  7  8  1  0  0  0  0
  8  9  1  0  0  0  0
  9 10  2  0  0  0  0
 10 11  1  0  0  0  0
 11 12  2  0  0  0  0
 12 13  1  0  0  0  0
 13 14  2  0  0  0  0
  9 14  1  0  0  0  0
M  END
>  <Catalog ID>
Z965810976

>  <PlateID>
1198308-R-SPFL-11

>  <Well>
E11

>  <MW (desalted)>
188.226

>  <ClogP>
0.467

>  <HBD>
1

>  <TPSA>
38.050

>  <RotBonds>
3

$$$$

            

 10 10  0  0  0  0            999 V2000
   -0.8612    3.5893    0.0000 O   0  0  0  0  0  0  0  0  0  0  0  0
   -0.1467    3.1768    0.0000 C   0  0  0  0  0  0  0  0  0  0  0  0
    0.5678    3.5893    0.0000 O   0  0  0  0  0  0  0  0  0  0  0  0
   -0.1467    2.3518    0.0000 C   0  0  0  0  0  0  0  0  0  0  0  0
    0.5678    1.9393    0.0000 C   0  0  0  0  0  0  0  0  0  0  0  0
    0.5678    1.1143    0.0000 N   0  0  0  0  0  0  0  0  0  0  0  0
    1.2352    0.6294    0.0000 C   0  0  0  0  0  0  0  0  0  0  0  0
    0.9803   -0.1553    0.0000 C   0  0  0  0  0  0  0  0  0  0  0  0
    0.1553   -0.1553    0.0000 C   0  0  0  0  0  0  0  0  0  0  0  0
   -0.0997    0.6294    0.0000 N   0  0  0  0  0  0  0  0  0  0  0  0
  1  2  1  0  0  0  0
  2  3  2  0  0  0  0
  2  4  1  0  0  0  0
  4  5  1  0  0  0  0
  5  6  1  0  0  0  0
  6  7  1  0  0  0  0
  7  8  2  0  0  0  0
  8  9  1  0  0  0  0
  9 10  2  0  0  0  0
  6 10  1  0  0  0  0
M  END
>  <Catalog ID>
Z220346786

>  <PlateID>
1198308-R-SPFL-11

>  <Well>
F02

>  <MW (desalted)>
140.140

>  <ClogP>
0.004

>  <HBD>
1

>  <TPSA>
55.120

>  <RotBonds>
3

$$$$

            

 13 14  0  0  0  0            999 V2000
   -0.1781   -3.1062    0.0000 O   0  0  0  0  0  0  0  0  0  0  0  0
    0.0768   -2.3215    0.0000 C   0  0  0  0  0  0  0  0  0  0  0  0
   -0.4752   -1.7084    0.0000 O   0  0  0  0  0  0  0  0  0  0  0  0
    0.8838   -2.1500    0.0000 C   0  0  0  0  0  0  0  0  0  0  0  0
    1.1387   -1.3654    0.0000 N   0  0  0  0  0  0  0  0  0  0  0  0
    0.6538   -0.6979    0.0000 C   0  0  0  0  0  0  0  0  0  0  0  0
    1.1387   -0.0305    0.0000 C   0  0  0  0  0  0  0  0  0  0  0  0
    1.9233   -0.2854    0.0000 C   0  0  0  0  0  0  0  0  0  0  0  0
    2.6378    0.1271    0.0000 C   0  0  0  0  0  0  0  0  0  0  0  0
    3.3523   -0.2854    0.0000 C   0  0  0  0  0  0  0  0  0  0  0  0
    3.3523   -1.1104    0.0000 C   0  0  0  0  0  0  0  0  0  0  0  0
    2.6378   -1.5229    0.0000 C   0  0  0  0  0  0  0  0  0  0  0  0
    1.9233   -1.1104    0.0000 C   0  0  0  0  0  0  0  0  0  0  0  0
  1  2  1  0  0  0  0
  2  3  2  0  0  0  0
  2  4  1  0  0  0  0
  4  5  1  0  0  0  0
  5  6  1  0  0  0  0
  6  7  2  0  0  0  0
  7  8  1  0  0  0  0
  8  9  2  0  0  0  0
  9 10  1  0  0  0  0
 10 11  2  0  0  0  0
 11 12  1  0  0  0  0
 12 13  2  0  0  0  0
  5 13  1  0  0  0  0
  8 13  1  0  0  0  0
M  END
>  <Catalog ID>
Z274525914

>  <PlateID>
1198308-R-SPFL-11

>  <Well>
F03

>  <MW (desalted)>
175.184

>  <ClogP>
1.980

>  <HBD>
1

>  <TPSA>
42.230

>  <RotBonds>
2

$$$$

            

 10 11  0  0  0  0            999 V2000
    3.2789    2.0625    0.0000 N   0  0  0  0  0  0  0  0  0  0  0  0
    3.2789    1.2375    0.0000 C   0  0  0  0  0  0  0  0  0  0  0  0
    3.9934    0.8250    0.0000 N   0  0  0  0  0  0  0  0  0  0  0  0
    3.9934    0.0000    0.0000 C   0  0  0  0  0  0  0  0  0  0  0  0
    3.2789   -0.4125    0.0000 C   0  0  0  0  0  0  0  0  0  0  0  0
    2.5645    0.0000    0.0000 C   0  0  0  0  0  0  0  0  0  0  0  0
    1.7798   -0.2549    0.0000 S   0  0  0  0  0  0  0  0  0  0  0  0
    1.2949    0.4125    0.0000 C   0  0  0  0  0  0  0  0  0  0  0  0
    1.7798    1.0799    0.0000 C   0  0  0  0  0  0  0  0  0  0  0  0
    2.5645    0.8250    0.0000 C   0  0  0  0  0  0  0  0  0  0  0  0
  1  2  1  0  0  0  0
  2  3  1  0  0  0  0
  3  4  2  0  0  0  0
  4  5  1  0  0  0  0
  5  6  2  0  0  0  0
  6  7  1  0  0  0  0
  7  8  1  0  0  0  0
  8  9  2  0  0  0  0
  9 10  1  0  0  0  0
  2 10  2  0  0  0  0
  6 10  1  0  0  0  0
M  END
>  <Catalog ID>
Z425813696

>  <PlateID>
1198308-R-SPFL-11

>  <Well>
F04

>  <MW (desalted)>
150.201

>  <ClogP>
1.547

>  <HBD>
1

>  <TPSA>
38.910

>  <RotBonds>
0

$$$$

            

 12 11  0  0  0  0            999 V2000
    0.0000    0.0000    0.0000 Cl  0  0  0  0  0  0  0  0  0  0  0  0
    2.6002    1.7625    0.0000 C   0  0  0  0  0  0  0  0  0  0  0  0
    3.3147    1.3500    0.0000 O   0  0  0  0  0  0  0  0  0  0  0  0
    3.3147    0.5250    0.0000 C   0  0  0  0  0  0  0  0  0  0  0  0
    4.0291    0.1125    0.0000 C   0  0  0  0  0  0  0  0  0  0  0  0
    4.0291   -0.7125    0.0000 C   0  0  0  0  0  0  0  0  0  0  0  0
    4.7436   -1.1250    0.0000 C   0  0  0  0  0  0  0  0  0  0  0  0
    5.4581   -0.7125    0.0000 N   0  0  0  0  0  0  0  0  0  0  0  0
    3.3147   -1.1250    0.0000 C   0  0  0  0  0  0  0  0  0  0  0  0
    2.6002   -0.7125    0.0000 C   0  0  0  0  0  0  0  0  0  0  0  0
    2.6002    0.1125    0.0000 C   0  0  0  0  0  0  0  0  0  0  0  0
    1.8857    0.5250    0.0000 Cl  0  0  0  0  0  0  0  0  0  0  0  0
  2  3  1  0  0  0  0
  3  4  1  0  0  0  0
  4  5  2  0  0  0  0
  5  6  1  0  0  0  0
  6  7  1  0  0  0  0
  7  8  1  0  0  0  0
  6  9  2  0  0  0  0
  9 10  1  0  0  0  0
 10 11  2  0  0  0  0
  4 11  1  0  0  0  0
 11 12  1  0  0  0  0
M  END
>  <Catalog ID>
Z2418537377

>  <PlateID>
1198308-R-SPFL-11

>  <Well>
F05

>  <MW (desalted)>
171.624

>  <ClogP>
1.636

>  <HBD>
1

>  <TPSA>
35.250

>  <RotBonds>
2

$$$$

            

 11 10  0  0  0  0            999 V2000
    0.0000    0.0000    0.0000 Cl  0  0  0  0  0  0  0  0  0  0  0  0
    3.9707    1.8337    0.0000 C   0  0  0  0  0  0  0  0  0  0  0  0
    3.9707    1.0087    0.0000 N   0  0  0  0  0  0  0  0  0  0  0  0
    4.6381    0.5238    0.0000 C   0  0  0  0  0  0  0  0  0  0  0  0
    4.3832   -0.2609    0.0000 C   0  0  0  0  0  0  0  0  0  0  0  0
    3.5582   -0.2609    0.0000 C   0  0  0  0  0  0  0  0  0  0  0  0
    3.0733   -0.9283    0.0000 C   0  0  0  0  0  0  0  0  0  0  0  0
    2.2528   -0.8421    0.0000 C   0  0  0  0  0  0  0  0  0  0  0  0
    1.7679   -1.5095    0.0000 O   0  0  0  0  0  0  0  0  0  0  0  0
    1.9172   -0.0884    0.0000 O   0  0  0  0  0  0  0  0  0  0  0  0
    3.3032    0.5238    0.0000 N   0  0  0  0  0  0  0  0  0  0  0  0
  2  3  1  0  0  0  0
  3  4  1  0  0  0  0
  4  5  2  0  0  0  0
  5  6  1  0  0  0  0
  6  7  1  0  0  0  0
  7  8  1  0  0  0  0
  8  9  2  0  0  0  0
  8 10  1  0  0  0  0
  6 11  2  0  0  0  0
  3 11  1  0  0  0  0
M  END
>  <Catalog ID>
Z2677308426

>  <PlateID>
1198308-R-SPFL-11

>  <Well>
F06

>  <MW (desalted)>
140.140

>  <ClogP>
-0.471

>  <HBD>
1

>  <TPSA>
55.120

>  <RotBonds>
2

$$$$

            

 12 13  0  0  0  0            999 V2000
    0.7145   -0.4125    0.0000 N   0  0  0  0  0  0  0  0  0  0  0  0
    0.7145   -1.2375    0.0000 C   0  0  0  0  0  0  0  0  0  0  0  0
    1.3819   -1.7224    0.0000 N   0  0  0  0  0  0  0  0  0  0  0  0
    1.1270   -2.5070    0.0000 O   0  0  0  0  0  0  0  0  0  0  0  0
    0.3020   -2.5070    0.0000 C   0  0  0  0  0  0  0  0  0  0  0  0
    0.0470   -1.7224    0.0000 N   0  0  0  0  0  0  0  0  0  0  0  0
   -0.1830   -3.1745    0.0000 C   0  0  0  0  0  0  0  0  0  0  0  0
    0.1526   -3.9282    0.0000 C   0  0  0  0  0  0  0  0  0  0  0  0
   -0.3323   -4.5956    0.0000 C   0  0  0  0  0  0  0  0  0  0  0  0
   -1.1528   -4.5094    0.0000 C   0  0  0  0  0  0  0  0  0  0  0  0
   -1.4884   -3.7557    0.0000 C   0  0  0  0  0  0  0  0  0  0  0  0
   -1.0034   -3.0882    0.0000 C   0  0  0  0  0  0  0  0  0  0  0  0
  1  2  1  0  0  0  0
  2  3  2  0  0  0  0
  3  4  1  0  0  0  0
  4  5  1  0  0  0  0
  5  6  2  0  0  0  0
  2  6  1  0  0  0  0
  5  7  1  0  0  0  0
  7  8  2  0  0  0  0
  8  9  1  0  0  0  0
  9 10  2  0  0  0  0
 10 11  1  0  0  0  0
 11 12  2  0  0  0  0
  7 12  1  0  0  0  0
M  END
>  <Catalog ID>
Z56791884

>  <PlateID>
1198308-R-SPFL-11

>  <Well>
F07

>  <MW (desalted)>
161.161

>  <ClogP>
1.571

>  <HBD>
1

>  <TPSA>
64.940

>  <RotBonds>
1

$$$$

            

 11 12  0  0  0  0            999 V2000
    1.1270   -2.5070    0.0000 C   0  0  0  0  0  0  0  0  0  0  0  0
    0.3020   -2.5070    0.0000 C   0  0  0  0  0  0  0  0  0  0  0  0
    0.0470   -1.7224    0.0000 N   0  0  0  0  0  0  0  0  0  0  0  0
    0.7145   -1.2375    0.0000 N   0  0  0  0  0  0  0  0  0  0  0  0
    1.3819   -1.7224    0.0000 C   0  0  0  0  0  0  0  0  0  0  0  0
    0.7145   -0.4125    0.0000 C   0  0  0  0  0  0  0  0  0  0  0  0
    0.0000    0.0000    0.0000 C   0  0  0  0  0  0  0  0  0  0  0  0
    0.0000    0.8250    0.0000 C   0  0  0  0  0  0  0  0  0  0  0  0
    0.7145    1.2375    0.0000 C   0  0  0  0  0  0  0  0  0  0  0  0
    1.4289    0.8250    0.0000 C   0  0  0  0  0  0  0  0  0  0  0  0
    1.4289   -0.0000    0.0000 N   0  0  0  0  0  0  0  0  0  0  0  0
  1  2  1  0  0  0  0
  2  3  2  0  0  0  0
  3  4  1  0  0  0  0
  4  5  1  0  0  0  0
  1  5  2  0  0  0  0
  4  6  1  0  0  0  0
  6  7  2  0  0  0  0
  7  8  1  0  0  0  0
  8  9  2  0  0  0  0
  9 10  1  0  0  0  0
 10 11  2  0  0  0  0
  6 11  1  0  0  0  0
M  END
>  <Catalog ID>
Z431509814

>  <PlateID>
1198308-R-SPFL-11

>  <Well>
F08

>  <MW (desalted)>
145.161

>  <ClogP>
1.117

>  <HBD>
0

>  <TPSA>
30.710

>  <RotBonds>
1

$$$$

            

 14 14  0  0  0  0            999 V2000
    0.0000    0.0000    0.0000 Cl  0  0  0  0  0  0  0  0  0  0  0  0
    3.8164    2.4182    0.0000 C   0  0  0  0  0  0  0  0  0  0  0  0
    3.3315    1.7508    0.0000 C   0  0  0  0  0  0  0  0  0  0  0  0
    2.5110    1.8370    0.0000 C   0  0  0  0  0  0  0  0  0  0  0  0
    3.6671    0.9971    0.0000 C   0  0  0  0  0  0  0  0  0  0  0  0
    4.4875    0.9109    0.0000 N   0  0  0  0  0  0  0  0  0  0  0  0
    3.1821    0.3297    0.0000 C   0  0  0  0  0  0  0  0  0  0  0  0
    3.4371   -0.4550    0.0000 N   0  0  0  0  0  0  0  0  0  0  0  0
    2.7696   -0.9399    0.0000 C   0  0  0  0  0  0  0  0  0  0  0  0
    2.1022   -0.4550    0.0000 N   0  0  0  0  0  0  0  0  0  0  0  0
    2.3571    0.3297    0.0000 O   0  0  0  0  0  0  0  0  0  0  0  0
    2.7696   -1.7649    0.0000 C   0  0  0  0  0  0  0  0  0  0  0  0
    3.1821   -2.4793    0.0000 C   0  0  0  0  0  0  0  0  0  0  0  0
    2.3571   -2.4793    0.0000 C   0  0  0  0  0  0  0  0  0  0  0  0
  2  3  1  0  0  0  0
  3  4  1  0  0  0  0
  3  5  1  0  0  0  0
  5  6  1  0  0  0  0
  5  7  1  0  0  0  0
  7  8  2  0  0  0  0
  8  9  1  0  0  0  0
  9 10  2  0  0  0  0
 10 11  1  0  0  0  0
  7 11  1  0  0  0  0
  9 12  1  0  0  0  0
 12 13  1  0  0  0  0
 13 14  1  0  0  0  0
 12 14  1  0  0  0  0
M  END
>  <Catalog ID>
Z1263529661

>  <PlateID>
1198308-R-SPFL-11

>  <Well>
F09

>  <MW (desalted)>
181.235

>  <ClogP>
0.396

>  <HBD>
1

>  <TPSA>
64.940

>  <RotBonds>
3

$$$$

            

 15 13  0  0  0  0            999 V2000
    0.0000    0.0000    0.0000 Cl  0  0  0  0  0  0  0  0  0  0  0  0
    2.0036    0.0000    0.0000 Cl  0  0  0  0  0  0  0  0  0  0  0  0
    1.2091   -1.6500    0.0000 N   0  0  0  0  0  0  0  0  0  0  0  0
    0.4946   -2.0625    0.0000 C   0  0  0  0  0  0  0  0  0  0  0  0
    0.4946   -2.8875    0.0000 C   0  0  0  0  0  0  0  0  0  0  0  0
    1.2091   -3.3000    0.0000 C   0  0  0  0  0  0  0  0  0  0  0  0
    1.2091   -4.1250    0.0000 C   0  0  0  0  0  0  0  0  0  0  0  0
    0.4946   -4.5375    0.0000 C   0  0  0  0  0  0  0  0  0  0  0  0
   -0.2198   -4.1250    0.0000 N   0  0  0  0  0  0  0  0  0  0  0  0
   -0.9343   -4.5375    0.0000 C   0  0  0  0  0  0  0  0  0  0  0  0
   -0.9343   -5.3625    0.0000 C   0  0  0  0  0  0  0  0  0  0  0  0
   -0.9343   -6.1875    0.0000 F   0  0  0  0  0  0  0  0  0  0  0  0
   -1.7593   -5.3625    0.0000 F   0  0  0  0  0  0  0  0  0  0  0  0
   -0.1093   -5.3625    0.0000 F   0  0  0  0  0  0  0  0  0  0  0  0
   -0.2198   -3.3000    0.0000 C   0  0  0  0  0  0  0  0  0  0  0  0
  3  4  1  0  0  0  0
  4  5  1  0  0  0  0
  5  6  1  0  0  0  0
  6  7  1  0  0  0  0
  7  8  1  0  0  0  0
  8  9  1  0  0  0  0
  9 10  1  0  0  0  0
 10 11  1  0  0  0  0
 11 12  1  0  0  0  0
 11 13  1  0  0  0  0
 11 14  1  0  0  0  0
  9 15  1  0  0  0  0
  5 15  1  0  0  0  0
M  END
>  <Catalog ID>
Z2216711529

>  <PlateID>
1198308-R-SPFL-11

>  <Well>
F10

>  <MW (desalted)>
196.213

>  <ClogP>
0.636

>  <HBD>
1

>  <TPSA>
29.260

>  <RotBonds>
3

$$$$

            

 11 12  0  0  0  0            999 V2000
    1.1270   -2.5070    0.0000 C   0  0  0  0  0  0  0  0  0  0  0  0
    0.3020   -2.5070    0.0000 C   0  0  0  0  0  0  0  0  0  0  0  0
    0.0470   -1.7224    0.0000 N   0  0  0  0  0  0  0  0  0  0  0  0
    0.7145   -1.2375    0.0000 C   0  0  0  0  0  0  0  0  0  0  0  0
    1.3819   -1.7224    0.0000 N   0  0  0  0  0  0  0  0  0  0  0  0
    0.7145   -0.4125    0.0000 C   0  0  0  0  0  0  0  0  0  0  0  0
    0.0000    0.0000    0.0000 C   0  0  0  0  0  0  0  0  0  0  0  0
    0.0000    0.8250    0.0000 C   0  0  0  0  0  0  0  0  0  0  0  0
    0.7145    1.2375    0.0000 C   0  0  0  0  0  0  0  0  0  0  0  0
    1.4289    0.8250    0.0000 C   0  0  0  0  0  0  0  0  0  0  0  0
    1.4289   -0.0000    0.0000 C   0  0  0  0  0  0  0  0  0  0  0  0
  1  2  2  0  0  0  0
  2  3  1  0  0  0  0
  3  4  1  0  0  0  0
  4  5  2  0  0  0  0
  1  5  1  0  0  0  0
  4  6  1  0  0  0  0
  6  7  2  0  0  0  0
  7  8  1  0  0  0  0
  8  9  2  0  0  0  0
  9 10  1  0  0  0  0
 10 11  2  0  0  0  0
  6 11  1  0  0  0  0
M  END
>  <Catalog ID>
Z104492164

>  <PlateID>
1198308-R-SPFL-11

>  <Well>
F11

>  <MW (desalted)>
144.173

>  <ClogP>
2.069

>  <HBD>
1

>  <TPSA>
28.680

>  <RotBonds>
1

$$$$

            

 13 14  0  0  0  0            999 V2000
    0.0768   -2.3215    0.0000 C   0  0  0  0  0  0  0  0  0  0  0  0
    0.8838   -2.1500    0.0000 C   0  0  0  0  0  0  0  0  0  0  0  0
    1.4358   -2.7631    0.0000 C   0  0  0  0  0  0  0  0  0  0  0  0
    1.1387   -1.3654    0.0000 N   0  0  0  0  0  0  0  0  0  0  0  0
    0.6538   -0.6979    0.0000 N   0  0  0  0  0  0  0  0  0  0  0  0
    1.1387   -0.0305    0.0000 C   0  0  0  0  0  0  0  0  0  0  0  0
    1.9233   -0.2854    0.0000 C   0  0  0  0  0  0  0  0  0  0  0  0
    2.6378    0.1271    0.0000 C   0  0  0  0  0  0  0  0  0  0  0  0
    3.3523   -0.2854    0.0000 C   0  0  0  0  0  0  0  0  0  0  0  0
    4.0668    0.1271    0.0000 N   0  0  0  0  0  0  0  0  0  0  0  0
    3.3523   -1.1104    0.0000 C   0  0  0  0  0  0  0  0  0  0  0  0
    2.6378   -1.5229    0.0000 N   0  0  0  0  0  0  0  0  0  0  0  0
    1.9233   -1.1104    0.0000 C   0  0  0  0  0  0  0  0  0  0  0  0
  1  2  1  0  0  0  0
  2  3  1  0  0  0  0
  2  4  1  0  0  0  0
  4  5  1  0  0  0  0
  5  6  2  0  0  0  0
  6  7  1  0  0  0  0
  7  8  2  0  0  0  0
  8  9  1  0  0  0  0
  9 10  1  0  0  0  0
  9 11  2  0  0  0  0
 11 12  1  0  0  0  0
 12 13  2  0  0  0  0
  4 13  1  0  0  0  0
  7 13  1  0  0  0  0
M  END
>  <Catalog ID>
Z118307562

>  <PlateID>
1198308-R-SPFL-11

>  <Well>
G02

>  <MW (desalted)>
176.218

>  <ClogP>
1.053

>  <HBD>
1

>  <TPSA>
56.730

>  <RotBonds>
1

$$$$

            

 11 11  0  0  0  0            999 V2000
    0.0000    0.0000    0.0000 Cl  0  0  0  0  0  0  0  0  0  0  0  0
    5.7701    0.7425    0.0000 C   0  0  0  0  0  0  0  0  0  0  0  0
    5.0556    0.3300    0.0000 C   0  0  0  0  0  0  0  0  0  0  0  0
    5.0556   -0.4950    0.0000 C   0  0  0  0  0  0  0  0  0  0  0  0
    4.3412   -0.9075    0.0000 C   0  0  0  0  0  0  0  0  0  0  0  0
    3.6267   -0.4950    0.0000 C   0  0  0  0  0  0  0  0  0  0  0  0
    2.8421   -0.7499    0.0000 C   0  0  0  0  0  0  0  0  0  0  0  0
    2.3571   -0.0825    0.0000 C   0  0  0  0  0  0  0  0  0  0  0  0
    2.8421    0.5849    0.0000 N   0  0  0  0  0  0  0  0  0  0  0  0
    3.6267    0.3300    0.0000 C   0  0  0  0  0  0  0  0  0  0  0  0
    4.3412    0.7425    0.0000 C   0  0  0  0  0  0  0  0  0  0  0  0
  2  3  1  0  0  0  0
  3  4  2  0  0  0  0
  4  5  1  0  0  0  0
  5  6  2  0  0  0  0
  6  7  1  0  0  0  0
  7  8  1  0  0  0  0
  8  9  1  0  0  0  0
  9 10  1  0  0  0  0
  6 10  1  0  0  0  0
 10 11  2  0  0  0  0
  3 11  1  0  0  0  0
M  END
>  <Catalog ID>
Z1269638555

>  <PlateID>
1198308-R-SPFL-11

>  <Well>
G03

>  <MW (desalted)>
133.190

>  <ClogP>
2.275

>  <HBD>
1

>  <TPSA>
12.030

>  <RotBonds>
0

$$$$

            

 10 10  0  0  0  0            999 V2000
    0.5678    1.9393    0.0000 C   0  0  0  0  0  0  0  0  0  0  0  0
    0.5678    1.1143    0.0000 C   0  0  0  0  0  0  0  0  0  0  0  0
    1.2352    0.6294    0.0000 N   0  0  0  0  0  0  0  0  0  0  0  0
    0.9803   -0.1553    0.0000 C   0  0  0  0  0  0  0  0  0  0  0  0
    1.4652   -0.8227    0.0000 C   0  0  0  0  0  0  0  0  0  0  0  0
    1.1296   -1.5764    0.0000 C   0  0  0  0  0  0  0  0  0  0  0  0
    1.6145   -2.2438    0.0000 O   0  0  0  0  0  0  0  0  0  0  0  0
    0.3091   -1.6626    0.0000 O   0  0  0  0  0  0  0  0  0  0  0  0
    0.1553   -0.1553    0.0000 C   0  0  0  0  0  0  0  0  0  0  0  0
   -0.0997    0.6294    0.0000 S   0  0  0  0  0  0  0  0  0  0  0  0
  1  2  1  0  0  0  0
  2  3  2  0  0  0  0
  3  4  1  0  0  0  0
  4  5  1  0  0  0  0
  5  6  1  0  0  0  0
  6  7  2  0  0  0  0
  6  8  1  0  0  0  0
  4  9  2  0  0  0  0
  9 10  1  0  0  0  0
  2 10  1  0  0  0  0
M  END
>  <Catalog ID>
Z56946867

>  <PlateID>
1198308-R-SPFL-11

>  <Well>
G04

>  <MW (desalted)>
157.190

>  <ClogP>
0.257

>  <HBD>
1

>  <TPSA>
50.190

>  <RotBonds>
2

$$$$

            

 12 11  0  0  0  0            999 V2000
    0.0000    0.0000    0.0000 Cl  0  0  0  0  0  0  0  0  0  0  0  0
    4.5566    0.8811    0.0000 C   0  0  0  0  0  0  0  0  0  0  0  0
    4.0045    0.2680    0.0000 C   0  0  0  0  0  0  0  0  0  0  0  0
    3.4525    0.8811    0.0000 C   0  0  0  0  0  0  0  0  0  0  0  0
    4.6720   -0.2169    0.0000 N   0  0  0  0  0  0  0  0  0  0  0  0
    4.4170   -1.0016    0.0000 C   0  0  0  0  0  0  0  0  0  0  0  0
    3.5920   -1.0016    0.0000 C   0  0  0  0  0  0  0  0  0  0  0  0
    3.3371   -0.2169    0.0000 C   0  0  0  0  0  0  0  0  0  0  0  0
    2.5525    0.0380    0.0000 C   0  0  0  0  0  0  0  0  0  0  0  0
    1.7679    0.2929    0.0000 F   0  0  0  0  0  0  0  0  0  0  0  0
    2.8074    0.8226    0.0000 F   0  0  0  0  0  0  0  0  0  0  0  0
    2.2975   -0.7466    0.0000 F   0  0  0  0  0  0  0  0  0  0  0  0
  2  3  1  0  0  0  0
  3  4  1  0  0  0  0
  3  5  1  0  0  0  0
  5  6  1  0  0  0  0
  6  7  1  0  0  0  0
  7  8  1  0  0  0  0
  3  8  1  0  0  0  0
  8  9  1  0  0  0  0
  9 10  1  0  0  0  0
  9 11  1  0  0  0  0
  9 12  1  0  0  0  0
M  END
>  <Catalog ID>
Z1796626362

>  <PlateID>
1198308-R-SPFL-11

>  <Well>
G05

>  <MW (desalted)>
167.172

>  <ClogP>
1.707

>  <HBD>
1

>  <TPSA>
12.030

>  <RotBonds>
1

$$$$

            

 14 15  0  0  0  0            999 V2000
    1.4289   -0.0000    0.0000 O   0  0  0  0  0  0  0  0  0  0  0  0
    0.7145   -0.4125    0.0000 C   0  0  0  0  0  0  0  0  0  0  0  0
    0.0000    0.0000    0.0000 O   0  0  0  0  0  0  0  0  0  0  0  0
    0.7145   -1.2375    0.0000 C   0  0  0  0  0  0  0  0  0  0  0  0
    1.3819   -1.7224    0.0000 C   0  0  0  0  0  0  0  0  0  0  0  0
    1.1270   -2.5070    0.0000 N   0  0  0  0  0  0  0  0  0  0  0  0
    0.3020   -2.5070    0.0000 C   0  0  0  0  0  0  0  0  0  0  0  0
    0.0470   -1.7224    0.0000 O   0  0  0  0  0  0  0  0  0  0  0  0
   -0.1830   -3.1745    0.0000 C   0  0  0  0  0  0  0  0  0  0  0  0
    0.1526   -3.9282    0.0000 C   0  0  0  0  0  0  0  0  0  0  0  0
   -0.3323   -4.5956    0.0000 C   0  0  0  0  0  0  0  0  0  0  0  0
   -1.1528   -4.5094    0.0000 C   0  0  0  0  0  0  0  0  0  0  0  0
   -1.4884   -3.7557    0.0000 C   0  0  0  0  0  0  0  0  0  0  0  0
   -1.0034   -3.0882    0.0000 C   0  0  0  0  0  0  0  0  0  0  0  0
  1  2  1  0  0  0  0
  2  3  2  0  0  0  0
  2  4  1  0  0  0  0
  4  5  2  0  0  0  0
  5  6  1  0  0  0  0
  6  7  2  0  0  0  0
  7  8  1  0  0  0  0
  4  8  1  0  0  0  0
  7  9  1  0  0  0  0
  9 10  2  0  0  0  0
 10 11  1  0  0  0  0
 11 12  2  0  0  0  0
 12 13  1  0  0  0  0
 13 14  2  0  0  0  0
  9 14  1  0  0  0  0
M  END
>  <Catalog ID>
Z1198177237

>  <PlateID>
1198308-R-SPFL-11

>  <Well>
G06

>  <MW (desalted)>
189.167

>  <ClogP>
2.073

>  <HBD>
1

>  <TPSA>
63.330

>  <RotBonds>
2

$$$$

            

 12 12  0  0  0  0            999 V2000
    0.0000    2.4750    0.0000 C   0  0  0  0  0  0  0  0  0  0  0  0
    0.7145    2.0625    0.0000 O   0  0  0  0  0  0  0  0  0  0  0  0
    0.7145    1.2375    0.0000 C   0  0  0  0  0  0  0  0  0  0  0  0
    1.4289    0.8250    0.0000 C   0  0  0  0  0  0  0  0  0  0  0  0
    1.4289   -0.0000    0.0000 C   0  0  0  0  0  0  0  0  0  0  0  0
    0.7145   -0.4125    0.0000 C   0  0  0  0  0  0  0  0  0  0  0  0
    0.7145   -1.2375    0.0000 O   0  0  0  0  0  0  0  0  0  0  0  0
    1.4289   -1.6500    0.0000 C   0  0  0  0  0  0  0  0  0  0  0  0
    0.0000    0.0000    0.0000 C   0  0  0  0  0  0  0  0  0  0  0  0
   -0.7145   -0.4125    0.0000 C   0  0  0  0  0  0  0  0  0  0  0  0
   -1.4289    0.0000    0.0000 N   0  0  0  0  0  0  0  0  0  0  0  0
    0.0000    0.8250    0.0000 C   0  0  0  0  0  0  0  0  0  0  0  0
  1  2  1  0  0  0  0
  2  3  1  0  0  0  0
  3  4  2  0  0  0  0
  4  5  1  0  0  0  0
  5  6  2  0  0  0  0
  6  7  1  0  0  0  0
  7  8  1  0  0  0  0
  6  9  1  0  0  0  0
  9 10  1  0  0  0  0
 10 11  1  0  0  0  0
  9 12  2  0  0  0  0
  3 12  1  0  0  0  0
M  END
>  <Catalog ID>
Z285139178

>  <PlateID>
1198308-R-SPFL-11

>  <Well>
G07

>  <MW (desalted)>
167.205

>  <ClogP>
1.102

>  <HBD>
1

>  <TPSA>
44.480

>  <RotBonds>
3

$$$$

            

 13 14  0  0  0  0            999 V2000
    0.7145   -0.4125    0.0000 N   0  0  0  0  0  0  0  0  0  0  0  0
    0.7145   -1.2375    0.0000 C   0  0  0  0  0  0  0  0  0  0  0  0
    1.4289   -1.6500    0.0000 C   0  0  0  0  0  0  0  0  0  0  0  0
    1.4289   -2.4750    0.0000 N   0  0  0  0  0  0  0  0  0  0  0  0
    0.7145   -2.8875    0.0000 C   0  0  0  0  0  0  0  0  0  0  0  0
    0.0000   -2.4750    0.0000 N   0  0  0  0  0  0  0  0  0  0  0  0
    0.0000   -1.6500    0.0000 C   0  0  0  0  0  0  0  0  0  0  0  0
    0.7145   -3.7125    0.0000 C   0  0  0  0  0  0  0  0  0  0  0  0
    1.4289   -4.1250    0.0000 C   0  0  0  0  0  0  0  0  0  0  0  0
    1.4289   -4.9500    0.0000 C   0  0  0  0  0  0  0  0  0  0  0  0
    0.7145   -5.3625    0.0000 C   0  0  0  0  0  0  0  0  0  0  0  0
    0.0000   -4.9500    0.0000 C   0  0  0  0  0  0  0  0  0  0  0  0
    0.0000   -4.1250    0.0000 C   0  0  0  0  0  0  0  0  0  0  0  0
  1  2  1  0  0  0  0
  2  3  2  0  0  0  0
  3  4  1  0  0  0  0
  4  5  2  0  0  0  0
  5  6  1  0  0  0  0
  6  7  2  0  0  0  0
  2  7  1  0  0  0  0
  5  8  1  0  0  0  0
  8  9  2  0  0  0  0
  9 10  1  0  0  0  0
 10 11  2  0  0  0  0
 11 12  1  0  0  0  0
 12 13  2  0  0  0  0
  8 13  1  0  0  0  0
M  END
>  <Catalog ID>
Z166624374

>  <PlateID>
1198308-R-SPFL-11

>  <Well>
G08

>  <MW (desalted)>
171.199

>  <ClogP>
1.774

>  <HBD>
1

>  <TPSA>
51.800

>  <RotBonds>
1

$$$$

            

 12 13  0  0  0  0            999 V2000
    0.0000   -2.4750    0.0000 C   0  0  0  0  0  0  0  0  0  0  0  0
    0.0000   -1.6500    0.0000 C   0  0  0  0  0  0  0  0  0  0  0  0
    0.7145   -1.2375    0.0000 C   0  0  0  0  0  0  0  0  0  0  0  0
    1.4289   -1.6500    0.0000 C   0  0  0  0  0  0  0  0  0  0  0  0
    1.4289   -2.4750    0.0000 C   0  0  0  0  0  0  0  0  0  0  0  0
    0.7145   -2.8875    0.0000 N   0  0  0  0  0  0  0  0  0  0  0  0
    0.7145   -0.4125    0.0000 C   0  0  0  0  0  0  0  0  0  0  0  0
    0.0000    0.0000    0.0000 C   0  0  0  0  0  0  0  0  0  0  0  0
    0.0000    0.8250    0.0000 C   0  0  0  0  0  0  0  0  0  0  0  0
    0.7145    1.2375    0.0000 N   0  0  0  0  0  0  0  0  0  0  0  0
    1.4289    0.8250    0.0000 C   0  0  0  0  0  0  0  0  0  0  0  0
    1.4289   -0.0000    0.0000 N   0  0  0  0  0  0  0  0  0  0  0  0
  1  2  1  0  0  0  0
  2  3  1  0  0  0  0
  3  4  1  0  0  0  0
  4  5  1  0  0  0  0
  5  6  1  0  0  0  0
  1  6  1  0  0  0  0
  3  7  1  0  0  0  0
  7  8  2  0  0  0  0
  8  9  1  0  0  0  0
  9 10  2  0  0  0  0
 10 11  1  0  0  0  0
 11 12  2  0  0  0  0
  7 12  1  0  0  0  0
M  END
>  <Catalog ID>
Z854065836

>  <PlateID>
1198308-R-SPFL-11

>  <Well>
G09

>  <MW (desalted)>
163.220

>  <ClogP>
-0.111

>  <HBD>
1

>  <TPSA>
37.810

>  <RotBonds>
1

$$$$

            

 15 16  0  0  0  0            999 V2000
    0.0000   -4.1250    0.0000 O   0  0  0  0  0  0  0  0  0  0  0  0
    0.7145   -3.7125    0.0000 C   0  0  0  0  0  0  0  0  0  0  0  0
    1.4289   -4.1250    0.0000 O   0  0  0  0  0  0  0  0  0  0  0  0
    0.7145   -2.8875    0.0000 C   0  0  0  0  0  0  0  0  0  0  0  0
    1.4289   -2.4750    0.0000 C   0  0  0  0  0  0  0  0  0  0  0  0
    1.4289   -1.6500    0.0000 C   0  0  0  0  0  0  0  0  0  0  0  0
    0.7145   -1.2375    0.0000 C   0  0  0  0  0  0  0  0  0  0  0  0
    0.7145   -0.4125    0.0000 N   0  0  0  0  0  0  0  0  0  0  0  0
    1.4289    0.0000    0.0000 C   0  0  0  0  0  0  0  0  0  0  0  0
    2.1434   -0.4125    0.0000 C   0  0  0  0  0  0  0  0  0  0  0  0
    2.8579    0.0000    0.0000 C   0  0  0  0  0  0  0  0  0  0  0  0
    3.5724   -0.4125    0.0000 C   0  0  0  0  0  0  0  0  0  0  0  0
    3.5724   -1.2375    0.0000 C   0  0  0  0  0  0  0  0  0  0  0  0
    2.8579   -1.6500    0.0000 C   0  0  0  0  0  0  0  0  0  0  0  0
    2.1434   -1.2375    0.0000 C   0  0  0  0  0  0  0  0  0  0  0  0
  1  2  1  0  0  0  0
  2  3  2  0  0  0  0
  2  4  1  0  0  0  0
  4  5  1  0  0  0  0
  5  6  1  0  0  0  0
  6  7  2  0  0  0  0
  7  8  1  0  0  0  0
  8  9  2  0  0  0  0
  9 10  1  0  0  0  0
 10 11  2  0  0  0  0
 11 12  1  0  0  0  0
 12 13  2  0  0  0  0
 13 14  1  0  0  0  0
 14 15  2  0  0  0  0
  6 15  1  0  0  0  0
 10 15  1  0  0  0  0
M  END
>  <Catalog ID>
Z1272682681

>  <PlateID>
1198308-R-SPFL-11

>  <Well>
G10

>  <MW (desalted)>
201.221

>  <ClogP>
1.580

>  <HBD>
1

>  <TPSA>
50.190

>  <RotBonds>
3

$$$$

            

 14 15  0  0  0  0            999 V2000
   -0.7145   -2.8875    0.0000 C   0  0  0  0  0  0  0  0  0  0  0  0
    0.0000   -2.4750    0.0000 C   0  0  0  0  0  0  0  0  0  0  0  0
    0.7145   -2.8875    0.0000 O   0  0  0  0  0  0  0  0  0  0  0  0
    0.0000   -1.6500    0.0000 N   0  0  0  0  0  0  0  0  0  0  0  0
    0.7145   -1.2375    0.0000 C   0  0  0  0  0  0  0  0  0  0  0  0
    0.7145   -0.4125    0.0000 C   0  0  0  0  0  0  0  0  0  0  0  0
    1.4289    0.0000    0.0000 C   0  0  0  0  0  0  0  0  0  0  0  0
    2.1434   -0.4125    0.0000 C   0  0  0  0  0  0  0  0  0  0  0  0
    2.8579    0.0000    0.0000 O   0  0  0  0  0  0  0  0  0  0  0  0
    3.5724   -0.4125    0.0000 C   0  0  0  0  0  0  0  0  0  0  0  0
    3.5724   -1.2375    0.0000 C   0  0  0  0  0  0  0  0  0  0  0  0
    2.8579   -1.6500    0.0000 O   0  0  0  0  0  0  0  0  0  0  0  0
    2.1434   -1.2375    0.0000 C   0  0  0  0  0  0  0  0  0  0  0  0
    1.4289   -1.6500    0.0000 C   0  0  0  0  0  0  0  0  0  0  0  0
  1  2  1  0  0  0  0
  2  3  2  0  0  0  0
  2  4  1  0  0  0  0
  4  5  1  0  0  0  0
  5  6  2  0  0  0  0
  6  7  1  0  0  0  0
  7  8  2  0  0  0  0
  8  9  1  0  0  0  0
  9 10  1  0  0  0  0
 10 11  1  0  0  0  0
 11 12  1  0  0  0  0
 12 13  1  0  0  0  0
  8 13  1  0  0  0  0
 13 14  2  0  0  0  0
  5 14  1  0  0  0  0
M  END
>  <Catalog ID>
Z27668246

>  <PlateID>
1198308-R-SPFL-11

>  <Well>
G11

>  <MW (desalted)>
193.199

>  <ClogP>
1.177

>  <HBD>
1

>  <TPSA>
47.560

>  <RotBonds>
1

$$$$

            

 12 12  0  0  0  0            999 V2000
    0.0000    0.0000    0.0000 Cl  0  0  0  0  0  0  0  0  0  0  0  0
    2.3571   -1.3440    0.0000 N   0  0  0  0  0  0  0  0  0  0  0  0
    3.1641   -1.1725    0.0000 C   0  0  0  0  0  0  0  0  0  0  0  0
    3.4191   -0.3878    0.0000 C   0  0  0  0  0  0  0  0  0  0  0  0
    2.9341    0.2796    0.0000 C   0  0  0  0  0  0  0  0  0  0  0  0
    3.4191    0.9470    0.0000 N   0  0  0  0  0  0  0  0  0  0  0  0
    4.2037    0.6921    0.0000 N   0  0  0  0  0  0  0  0  0  0  0  0
    4.9181    1.1046    0.0000 C   0  0  0  0  0  0  0  0  0  0  0  0
    5.6326    0.6921    0.0000 C   0  0  0  0  0  0  0  0  0  0  0  0
    5.6326   -0.1329    0.0000 C   0  0  0  0  0  0  0  0  0  0  0  0
    4.9181   -0.5454    0.0000 C   0  0  0  0  0  0  0  0  0  0  0  0
    4.2037   -0.1329    0.0000 C   0  0  0  0  0  0  0  0  0  0  0  0
  2  3  1  0  0  0  0
  3  4  1  0  0  0  0
  4  5  1  0  0  0  0
  5  6  2  0  0  0  0
  6  7  1  0  0  0  0
  7  8  1  0  0  0  0
  8  9  2  0  0  0  0
  9 10  1  0  0  0  0
 10 11  2  0  0  0  0
 11 12  1  0  0  0  0
  4 12  2  0  0  0  0
  7 12  1  0  0  0  0
M  END
>  <Catalog ID>
Z2065464373

>  <PlateID>
1198308-R-SPFL-11

>  <Well>
H02

>  <MW (desalted)>
147.177

>  <ClogP>
0.434

>  <HBD>
1

>  <TPSA>
43.320

>  <RotBonds>
1

$$$$

            

 12 12  0  0  0  0            999 V2000
    0.5678    1.9393    0.0000 C   0  0  0  0  0  0  0  0  0  0  0  0
    0.5678    1.1143    0.0000 C   0  0  0  0  0  0  0  0  0  0  0  0
    1.2352    0.6294    0.0000 C   0  0  0  0  0  0  0  0  0  0  0  0
    0.9803   -0.1553    0.0000 C   0  0  0  0  0  0  0  0  0  0  0  0
    0.1553   -0.1553    0.0000 O   0  0  0  0  0  0  0  0  0  0  0  0
   -0.0997    0.6294    0.0000 C   0  0  0  0  0  0  0  0  0  0  0  0
   -0.8843    0.8843    0.0000 C   0  0  0  0  0  0  0  0  0  0  0  0
   -1.0558    1.6913    0.0000 O   0  0  0  0  0  0  0  0  0  0  0  0
   -1.4974    0.3323    0.0000 O   0  0  0  0  0  0  0  0  0  0  0  0
    1.4652   -0.8227    0.0000 C   0  0  0  0  0  0  0  0  0  0  0  0
    2.2857   -0.7365    0.0000 F   0  0  0  0  0  0  0  0  0  0  0  0
    1.1296   -1.5764    0.0000 F   0  0  0  0  0  0  0  0  0  0  0  0
  1  2  1  0  0  0  0
  2  3  1  0  0  0  0
  3  4  2  0  0  0  0
  4  5  1  0  0  0  0
  5  6  1  0  0  0  0
  2  6  2  0  0  0  0
  6  7  1  0  0  0  0
  7  8  2  0  0  0  0
  7  9  1  0  0  0  0
  4 10  1  0  0  0  0
 10 11  1  0  0  0  0
 10 12  1  0  0  0  0
M  END
>  <Catalog ID>
Z2583002383

>  <PlateID>
1198308-R-SPFL-11

>  <Well>
H03

>  <MW (desalted)>
176.118

>  <ClogP>
1.455

>  <HBD>
1

>  <TPSA>
50.440

>  <RotBonds>
2

$$$$

            

 10 10  0  0  0  0            999 V2000
    1.3709    2.0082    0.0000 C   0  0  0  0  0  0  0  0  0  0  0  0
    0.8566    1.3632    0.0000 C   0  0  0  0  0  0  0  0  0  0  0  0
    0.3422    2.0082    0.0000 C   0  0  0  0  0  0  0  0  0  0  0  0
    1.5999    1.0053    0.0000 C   0  0  0  0  0  0  0  0  0  0  0  0
    1.7834    0.2009    0.0000 C   0  0  0  0  0  0  0  0  0  0  0  0
    1.2691   -0.4441    0.0000 N   0  0  0  0  0  0  0  0  0  0  0  0
    0.4441   -0.4441    0.0000 C   0  0  0  0  0  0  0  0  0  0  0  0
    0.0861   -1.1874    0.0000 O   0  0  0  0  0  0  0  0  0  0  0  0
   -0.0703    0.2009    0.0000 C   0  0  0  0  0  0  0  0  0  0  0  0
    0.1133    1.0053    0.0000 C   0  0  0  0  0  0  0  0  0  0  0  0
  1  2  1  0  0  0  0
  2  3  1  0  0  0  0
  2  4  1  0  0  0  0
  4  5  1  0  0  0  0
  5  6  1  0  0  0  0
  6  7  1  0  0  0  0
  7  8  2  0  0  0  0
  7  9  1  0  0  0  0
  9 10  1  0  0  0  0
  2 10  1  0  0  0  0
M  END
>  <Catalog ID>
Z1203733095

>  <PlateID>
1198308-R-SPFL-11

>  <Well>
H04

>  <MW (desalted)>
141.211

>  <ClogP>
1.183

>  <HBD>
1

>  <TPSA>
29.100

>  <RotBonds>
0

$$$$

            

 12 11  0  0  0  0            999 V2000
    0.0000    0.0000    0.0000 Cl  0  0  0  0  0  0  0  0  0  0  0  0
    2.0036    0.0000    0.0000 Cl  0  0  0  0  0  0  0  0  0  0  0  0
   -2.0469   -3.0319    0.0000 N   0  0  0  0  0  0  0  0  0  0  0  0
   -1.6344   -2.3174    0.0000 C   0  0  0  0  0  0  0  0  0  0  0  0
   -0.8094   -2.3174    0.0000 C   0  0  0  0  0  0  0  0  0  0  0  0
   -0.3245   -1.6500    0.0000 C   0  0  0  0  0  0  0  0  0  0  0  0
    0.4602   -1.9049    0.0000 N   0  0  0  0  0  0  0  0  0  0  0  0
    1.2448   -1.6500    0.0000 C   0  0  0  0  0  0  0  0  0  0  0  0
    1.7297   -2.3174    0.0000 C   0  0  0  0  0  0  0  0  0  0  0  0
    1.2448   -2.9849    0.0000 S   0  0  0  0  0  0  0  0  0  0  0  0
    0.4602   -2.7299    0.0000 C   0  0  0  0  0  0  0  0  0  0  0  0
   -0.3245   -2.9849    0.0000 N   0  0  0  0  0  0  0  0  0  0  0  0
  3  4  1  0  0  0  0
  4  5  1  0  0  0  0
  5  6  2  0  0  0  0
  6  7  1  0  0  0  0
  7  8  1  0  0  0  0
  8  9  1  0  0  0  0
  9 10  1  0  0  0  0
 10 11  1  0  0  0  0
  7 11  1  0  0  0  0
 11 12  2  0  0  0  0
  5 12  1  0  0  0  0
M  END
>  <Catalog ID>
Z1895583197

>  <PlateID>
1198308-R-SPFL-11

>  <Well>
H05

>  <MW (desalted)>
155.221

>  <ClogP>
-0.430

>  <HBD>
1

>  <TPSA>
43.840

>  <RotBonds>
1

$$$$

            

 11 11  0  0  0  0            999 V2000
    0.0000    2.4750    0.0000 C   0  0  0  0  0  0  0  0  0  0  0  0
    0.7145    2.0625    0.0000 O   0  0  0  0  0  0  0  0  0  0  0  0
    0.7145    1.2375    0.0000 C   0  0  0  0  0  0  0  0  0  0  0  0
    1.4289    0.8250    0.0000 C   0  0  0  0  0  0  0  0  0  0  0  0
    1.4289   -0.0000    0.0000 C   0  0  0  0  0  0  0  0  0  0  0  0
    0.7145   -0.4125    0.0000 C   0  0  0  0  0  0  0  0  0  0  0  0
    0.7145   -1.2375    0.0000 F   0  0  0  0  0  0  0  0  0  0  0  0
    0.0000    0.0000    0.0000 C   0  0  0  0  0  0  0  0  0  0  0  0
    0.0000    0.8250    0.0000 C   0  0  0  0  0  0  0  0  0  0  0  0
   -0.7145    1.2375    0.0000 O   0  0  0  0  0  0  0  0  0  0  0  0
   -0.7145    2.0625    0.0000 C   0  0  0  0  0  0  0  0  0  0  0  0
  1  2  1  0  0  0  0
  2  3  1  0  0  0  0
  3  4  2  0  0  0  0
  4  5  1  0  0  0  0
  5  6  2  0  0  0  0
  6  7  1  0  0  0  0
  6  8  1  0  0  0  0
  8  9  2  0  0  0  0
  3  9  1  0  0  0  0
  9 10  1  0  0  0  0
 10 11  1  0  0  0  0
M  END
>  <Catalog ID>
Z104504676

>  <PlateID>
1198308-R-SPFL-11

>  <Well>
H06

>  <MW (desalted)>
156.154

>  <ClogP>
2.014

>  <HBD>
0

>  <TPSA>
18.460

>  <RotBonds>
2

$$$$

            

 11 12  0  0  0  0            999 V2000
    1.2564   -0.1802    0.0000 C   0  0  0  0  0  0  0  0  0  0  0  0
    1.2564   -1.0052    0.0000 C   0  0  0  0  0  0  0  0  0  0  0  0
    1.9239   -1.4901    0.0000 C   0  0  0  0  0  0  0  0  0  0  0  0
    1.6689   -2.2748    0.0000 N   0  0  0  0  0  0  0  0  0  0  0  0
    0.8439   -2.2748    0.0000 N   0  0  0  0  0  0  0  0  0  0  0  0
    0.5890   -1.4901    0.0000 C   0  0  0  0  0  0  0  0  0  0  0  0
    0.3590   -2.9422    0.0000 C   0  0  0  0  0  0  0  0  0  0  0  0
    0.6139   -3.7268    0.0000 C   0  0  0  0  0  0  0  0  0  0  0  0
   -0.0535   -4.2117    0.0000 C   0  0  0  0  0  0  0  0  0  0  0  0
   -0.7209   -3.7268    0.0000 N   0  0  0  0  0  0  0  0  0  0  0  0
   -0.4660   -2.9422    0.0000 C   0  0  0  0  0  0  0  0  0  0  0  0
  1  2  1  0  0  0  0
  2  3  1  0  0  0  0
  3  4  2  0  0  0  0
  4  5  1  0  0  0  0
  5  6  1  0  0  0  0
  2  6  2  0  0  0  0
  5  7  1  0  0  0  0
  7  8  1  0  0  0  0
  8  9  1  0  0  0  0
  9 10  1  0  0  0  0
 10 11  1  0  0  0  0
  7 11  1  0  0  0  0
M  END
>  <Catalog ID>
Z975915946

>  <PlateID>
1198308-R-SPFL-11

>  <Well>
H07

>  <MW (desalted)>
151.209

>  <ClogP>
0.098

>  <HBD>
1

>  <TPSA>
29.850

>  <RotBonds>
1

$$$$

            

 13 13  0  0  0  0            999 V2000
    0.0000    0.0000    0.0000 Cl  0  0  0  0  0  0  0  0  0  0  0  0
    1.8857   -0.5954    0.0000 O   0  0  0  0  0  0  0  0  0  0  0  0
    2.7107   -0.5954    0.0000 C   0  0  0  0  0  0  0  0  0  0  0  0
    3.1232    0.1191    0.0000 C   0  0  0  0  0  0  0  0  0  0  0  0
    3.9482    0.1191    0.0000 N   0  0  0  0  0  0  0  0  0  0  0  0
    4.4331    0.7865    0.0000 C   0  0  0  0  0  0  0  0  0  0  0  0
    5.2178    0.5316    0.0000 C   0  0  0  0  0  0  0  0  0  0  0  0
    5.9322    0.9441    0.0000 C   0  0  0  0  0  0  0  0  0  0  0  0
    6.6467    0.5316    0.0000 C   0  0  0  0  0  0  0  0  0  0  0  0
    6.6467   -0.2934    0.0000 C   0  0  0  0  0  0  0  0  0  0  0  0
    5.9322   -0.7059    0.0000 C   0  0  0  0  0  0  0  0  0  0  0  0
    5.2178   -0.2934    0.0000 C   0  0  0  0  0  0  0  0  0  0  0  0
    4.4331   -0.5484    0.0000 C   0  0  0  0  0  0  0  0  0  0  0  0
  2  3  1  0  0  0  0
  3  4  1  0  0  0  0
  4  5  1  0  0  0  0
  5  6  1  0  0  0  0
  6  7  1  0  0  0  0
  7  8  2  0  0  0  0
  8  9  1  0  0  0  0
  9 10  2  0  0  0  0
 10 11  1  0  0  0  0
 11 12  2  0  0  0  0
  7 12  1  0  0  0  0
 12 13  1  0  0  0  0
  5 13  1  0  0  0  0
M  END
>  <Catalog ID>
Z1267773680

>  <PlateID>
1198308-R-SPFL-11

>  <Well>
H08

>  <MW (desalted)>
163.216

>  <ClogP>
0.907

>  <HBD>
1

>  <TPSA>
23.470

>  <RotBonds>
2

$$$$

            

 14 15  0  0  0  0            999 V2000
    2.1434   -0.4125    0.0000 N   0  0  0  0  0  0  0  0  0  0  0  0
    2.1434   -1.2375    0.0000 C   0  0  0  0  0  0  0  0  0  0  0  0
    2.8579   -1.6500    0.0000 C   0  0  0  0  0  0  0  0  0  0  0  0
    2.8579   -2.4750    0.0000 C   0  0  0  0  0  0  0  0  0  0  0  0
    2.1434   -2.8875    0.0000 C   0  0  0  0  0  0  0  0  0  0  0  0
    2.1434   -3.7125    0.0000 O   0  0  0  0  0  0  0  0  0  0  0  0
    1.4289   -4.1250    0.0000 C   0  0  0  0  0  0  0  0  0  0  0  0
    1.4289   -4.9500    0.0000 C   0  0  0  0  0  0  0  0  0  0  0  0
    0.7145   -5.3625    0.0000 C   0  0  0  0  0  0  0  0  0  0  0  0
   -0.0000   -4.9500    0.0000 C   0  0  0  0  0  0  0  0  0  0  0  0
    0.0000   -4.1250    0.0000 N   0  0  0  0  0  0  0  0  0  0  0  0
    0.7145   -3.7125    0.0000 C   0  0  0  0  0  0  0  0  0  0  0  0
    1.4289   -2.4750    0.0000 N   0  0  0  0  0  0  0  0  0  0  0  0
    1.4289   -1.6500    0.0000 C   0  0  0  0  0  0  0  0  0  0  0  0
  1  2  1  0  0  0  0
  2  3  2  0  0  0  0
  3  4  1  0  0  0  0
  4  5  2  0  0  0  0
  5  6  1  0  0  0  0
  6  7  1  0  0  0  0
  7  8  2  0  0  0  0
  8  9  1  0  0  0  0
  9 10  2  0  0  0  0
 10 11  1  0  0  0  0
 11 12  2  0  0  0  0
  7 12  1  0  0  0  0
  5 13  1  0  0  0  0
 13 14  2  0  0  0  0
  2 14  1  0  0  0  0
M  END
>  <Catalog ID>
Z381429142

>  <PlateID>
1198308-R-SPFL-11

>  <Well>
H09

>  <MW (desalted)>
187.198

>  <ClogP>
0.919

>  <HBD>
1

>  <TPSA>
61.030

>  <RotBonds>
2

$$$$

            

 10 10  0  0  0  0            999 V2000
    1.2822    3.1768    0.0000 C   0  0  0  0  0  0  0  0  0  0  0  0
    1.2822    2.3518    0.0000 C   0  0  0  0  0  0  0  0  0  0  0  0
    1.9967    1.9393    0.0000 C   0  0  0  0  0  0  0  0  0  0  0  0
    0.5678    1.9393    0.0000 C   0  0  0  0  0  0  0  0  0  0  0  0
    0.5678    1.1143    0.0000 C   0  0  0  0  0  0  0  0  0  0  0  0
    1.2352    0.6294    0.0000 N   0  0  0  0  0  0  0  0  0  0  0  0
    0.9803   -0.1553    0.0000 N   0  0  0  0  0  0  0  0  0  0  0  0
    0.1553   -0.1553    0.0000 C   0  0  0  0  0  0  0  0  0  0  0  0
   -0.3297   -0.8227    0.0000 N   0  0  0  0  0  0  0  0  0  0  0  0
   -0.0997    0.6294    0.0000 S   0  0  0  0  0  0  0  0  0  0  0  0
  1  2  1  0  0  0  0
  2  3  1  0  0  0  0
  2  4  1  0  0  0  0
  4  5  1  0  0  0  0
  5  6  2  0  0  0  0
  6  7  1  0  0  0  0
  7  8  2  0  0  0  0
  8  9  1  0  0  0  0
  8 10  1  0  0  0  0
  5 10  1  0  0  0  0
M  END
>  <Catalog ID>
Z56791573

>  <PlateID>
1198308-R-SPFL-11

>  <Well>
H10

>  <MW (desalted)>
157.237

>  <ClogP>
1.500

>  <HBD>
1

>  <TPSA>
51.800

>  <RotBonds>
2

$$$$

            

 13 14  0  0  0  0            999 V2000
    2.0367   -0.4741    0.0000 N   0  0  0  0  0  0  0  0  0  0  0  0
    2.0367   -1.2991    0.0000 C   0  0  0  0  0  0  0  0  0  0  0  0
    2.7041   -1.7840    0.0000 C   0  0  0  0  0  0  0  0  0  0  0  0
    2.4492   -2.5687    0.0000 C   0  0  0  0  0  0  0  0  0  0  0  0
    1.6242   -2.5687    0.0000 N   0  0  0  0  0  0  0  0  0  0  0  0
    1.3693   -1.7840    0.0000 N   0  0  0  0  0  0  0  0  0  0  0  0
    0.5846   -1.5291    0.0000 C   0  0  0  0  0  0  0  0  0  0  0  0
    0.4131   -0.7221    0.0000 C   0  0  0  0  0  0  0  0  0  0  0  0
   -0.3715   -0.4672    0.0000 C   0  0  0  0  0  0  0  0  0  0  0  0
   -0.5430    0.3398    0.0000 C   0  0  0  0  0  0  0  0  0  0  0  0
    0.0701    0.8918    0.0000 C   0  0  0  0  0  0  0  0  0  0  0  0
    0.8547    0.6369    0.0000 C   0  0  0  0  0  0  0  0  0  0  0  0
    1.0262   -0.1701    0.0000 C   0  0  0  0  0  0  0  0  0  0  0  0
  1  2  1  0  0  0  0
  2  3  2  0  0  0  0
  3  4  1  0  0  0  0
  4  5  2  0  0  0  0
  5  6  1  0  0  0  0
  2  6  1  0  0  0  0
  6  7  1  0  0  0  0
  7  8  1  0  0  0  0
  8  9  2  0  0  0  0
  9 10  1  0  0  0  0
 10 11  2  0  0  0  0
 11 12  1  0  0  0  0
 12 13  2  0  0  0  0
  8 13  1  0  0  0  0
M  END
>  <Catalog ID>
Z57980554

>  <PlateID>
1198308-R-SPFL-11

>  <Well>
H11

>  <MW (desalted)>
173.214

>  <ClogP>
1.430

>  <HBD>
1

>  <TPSA>
43.840

>  <RotBonds>
2

$$$$

            

 11 11  0  0  0  0            999 V2000
   -0.7145    3.7125    0.0000 C   0  0  0  0  0  0  0  0  0  0  0  0
    0.0000    3.3000    0.0000 N   0  0  0  0  0  0  0  0  0  0  0  0
    0.0000    2.4750    0.0000 C   0  0  0  0  0  0  0  0  0  0  0  0
    0.7145    2.0625    0.0000 C   0  0  0  0  0  0  0  0  0  0  0  0
    0.7145    1.2375    0.0000 C   0  0  0  0  0  0  0  0  0  0  0  0
    1.4289    0.8250    0.0000 C   0  0  0  0  0  0  0  0  0  0  0  0
    1.4289   -0.0000    0.0000 C   0  0  0  0  0  0  0  0  0  0  0  0
    0.7145   -0.4125    0.0000 C   0  0  0  0  0  0  0  0  0  0  0  0
    0.7145   -1.2375    0.0000 F   0  0  0  0  0  0  0  0  0  0  0  0
    0.0000    0.0000    0.0000 C   0  0  0  0  0  0  0  0  0  0  0  0
    0.0000    0.8250    0.0000 C   0  0  0  0  0  0  0  0  0  0  0  0
  1  2  1  0  0  0  0
  2  3  1  0  0  0  0
  3  4  1  0  0  0  0
  4  5  1  0  0  0  0
  5  6  2  0  0  0  0
  6  7  1  0  0  0  0
  7  8  2  0  0  0  0
  8  9  1  0  0  0  0
  8 10  1  0  0  0  0
 10 11  2  0  0  0  0
  5 11  1  0  0  0  0
M  END
>  <Catalog ID>
Z138454998

>  <PlateID>
1198308-R-SPFL-12

>  <Well>
A02

>  <MW (desalted)>
153.197

>  <ClogP>
1.722

>  <HBD>
1

>  <TPSA>
12.030

>  <RotBonds>
3

$$$$

            

 12 13  0  0  0  0            999 V2000
    1.4289   -2.4750    0.0000 C   0  0  0  0  0  0  0  0  0  0  0  0
    0.7145   -2.8875    0.0000 C   0  0  0  0  0  0  0  0  0  0  0  0
    0.0000   -2.4750    0.0000 S   0  0  0  0  0  0  0  0  0  0  0  0
    0.0000   -1.6500    0.0000 C   0  0  0  0  0  0  0  0  0  0  0  0
    0.7145   -1.2375    0.0000 C   0  0  0  0  0  0  0  0  0  0  0  0
    1.4289   -1.6500    0.0000 N   0  0  0  0  0  0  0  0  0  0  0  0
    0.7145   -0.4125    0.0000 C   0  0  0  0  0  0  0  0  0  0  0  0
    0.0000    0.0000    0.0000 C   0  0  0  0  0  0  0  0  0  0  0  0
    0.0000    0.8250    0.0000 C   0  0  0  0  0  0  0  0  0  0  0  0
    0.7145    1.2375    0.0000 C   0  0  0  0  0  0  0  0  0  0  0  0
    1.4289    0.8250    0.0000 C   0  0  0  0  0  0  0  0  0  0  0  0
    1.4289   -0.0000    0.0000 C   0  0  0  0  0  0  0  0  0  0  0  0
  1  2  1  0  0  0  0
  2  3  1  0  0  0  0
  3  4  1  0  0  0  0
  4  5  1  0  0  0  0
  5  6  1  0  0  0  0
  1  6  1  0  0  0  0
  5  7  1  0  0  0  0
  7  8  2  0  0  0  0
  8  9  1  0  0  0  0
  9 10  2  0  0  0  0
 10 11  1  0  0  0  0
 11 12  2  0  0  0  0
  7 12  1  0  0  0  0
M  END
>  <Catalog ID>
Z1201621925

>  <PlateID>
1198308-R-SPFL-12

>  <Well>
A03

>  <MW (desalted)>
179.282

>  <ClogP>
1.944

>  <HBD>
1

>  <TPSA>
12.030

>  <RotBonds>
1

$$$$

            

 12 13  0  0  0  0            999 V2000
    0.0768   -2.3215    0.0000 O   0  0  0  0  0  0  0  0  0  0  0  0
    0.8838   -2.1500    0.0000 C   0  0  0  0  0  0  0  0  0  0  0  0
    1.4358   -2.7631    0.0000 O   0  0  0  0  0  0  0  0  0  0  0  0
    1.1387   -1.3654    0.0000 C   0  0  0  0  0  0  0  0  0  0  0  0
    0.6538   -0.6979    0.0000 N   0  0  0  0  0  0  0  0  0  0  0  0
    1.1387   -0.0305    0.0000 O   0  0  0  0  0  0  0  0  0  0  0  0
    1.9233   -0.2854    0.0000 C   0  0  0  0  0  0  0  0  0  0  0  0
    2.6378    0.1271    0.0000 C   0  0  0  0  0  0  0  0  0  0  0  0
    3.3523   -0.2854    0.0000 C   0  0  0  0  0  0  0  0  0  0  0  0
    3.3523   -1.1104    0.0000 C   0  0  0  0  0  0  0  0  0  0  0  0
    2.6378   -1.5229    0.0000 C   0  0  0  0  0  0  0  0  0  0  0  0
    1.9233   -1.1104    0.0000 C   0  0  0  0  0  0  0  0  0  0  0  0
  1  2  1  0  0  0  0
  2  3  2  0  0  0  0
  2  4  1  0  0  0  0
  4  5  2  0  0  0  0
  5  6  1  0  0  0  0
  6  7  1  0  0  0  0
  7  8  1  0  0  0  0
  8  9  1  0  0  0  0
  9 10  1  0  0  0  0
 10 11  1  0  0  0  0
 11 12  1  0  0  0  0
  4 12  1  0  0  0  0
  7 12  2  0  0  0  0
M  END
>  <Catalog ID>
Z339274856

>  <PlateID>
1198308-R-SPFL-12

>  <Well>
A04

>  <MW (desalted)>
167.162

>  <ClogP>
1.459

>  <HBD>
1

>  <TPSA>
63.330

>  <RotBonds>
1

$$$$

            

 12 14  0  0  0  0            999 V2000
    4.3327    0.8052    0.0000 C   0  0  0  0  0  0  0  0  0  0  0  0
    4.2941   -0.0189    0.0000 C   0  0  0  0  0  0  0  0  0  0  0  0
    3.4700    0.0198    0.0000 C   0  0  0  0  0  0  0  0  0  0  0  0
    3.5086    0.8439    0.0000 C   0  0  0  0  0  0  0  0  0  0  0  0
    3.6459   -0.7862    0.0000 N   0  0  0  0  0  0  0  0  0  0  0  0
    3.0359   -1.3416    0.0000 C   0  0  0  0  0  0  0  0  0  0  0  0
    2.2499   -1.0910    0.0000 C   0  0  0  0  0  0  0  0  0  0  0  0
    2.0739   -0.2850    0.0000 N   0  0  0  0  0  0  0  0  0  0  0  0
    1.3572    0.1235    0.0000 C   0  0  0  0  0  0  0  0  0  0  0  0
    1.5242    0.9314    0.0000 C   0  0  0  0  0  0  0  0  0  0  0  0
    2.3442    1.0222    0.0000 C   0  0  0  0  0  0  0  0  0  0  0  0
    2.6839    0.2704    0.0000 C   0  0  0  0  0  0  0  0  0  0  0  0
  1  2  1  0  0  0  0
  2  3  1  0  0  0  0
  3  4  1  0  0  0  0
  1  4  1  0  0  0  0
  3  5  1  0  0  0  0
  5  6  1  0  0  0  0
  6  7  1  0  0  0  0
  7  8  1  0  0  0  0
  8  9  1  0  0  0  0
  9 10  2  0  0  0  0
 10 11  1  0  0  0  0
 11 12  2  0  0  0  0
  8 12  1  0  0  0  0
  3 12  1  0  0  0  0
M  END
>  <Catalog ID>
Z2026200613

>  <PlateID>
1198308-R-SPFL-12

>  <Well>
A05

>  <MW (desalted)>
162.232

>  <ClogP>
1.320

>  <HBD>
1

>  <TPSA>
16.960

>  <RotBonds>
0

$$$$

            

 12 13  0  0  0  0            999 V2000
   -1.4087   -1.4124    0.0000 O   0  0  0  0  0  0  0  0  0  0  0  0
   -0.5837   -1.4124    0.0000 C   0  0  0  0  0  0  0  0  0  0  0  0
   -0.1712   -0.6979    0.0000 C   0  0  0  0  0  0  0  0  0  0  0  0
    0.6538   -0.6979    0.0000 C   0  0  0  0  0  0  0  0  0  0  0  0
    1.1387   -0.0305    0.0000 C   0  0  0  0  0  0  0  0  0  0  0  0
    1.9233   -0.2854    0.0000 N   0  0  0  0  0  0  0  0  0  0  0  0
    2.6378    0.1271    0.0000 C   0  0  0  0  0  0  0  0  0  0  0  0
    3.3523   -0.2854    0.0000 C   0  0  0  0  0  0  0  0  0  0  0  0
    3.3523   -1.1104    0.0000 C   0  0  0  0  0  0  0  0  0  0  0  0
    2.6378   -1.5229    0.0000 C   0  0  0  0  0  0  0  0  0  0  0  0
    1.9233   -1.1104    0.0000 C   0  0  0  0  0  0  0  0  0  0  0  0
    1.1387   -1.3654    0.0000 N   0  0  0  0  0  0  0  0  0  0  0  0
  1  2  1  0  0  0  0
  2  3  1  0  0  0  0
  3  4  1  0  0  0  0
  4  5  2  0  0  0  0
  5  6  1  0  0  0  0
  6  7  1  0  0  0  0
  7  8  1  0  0  0  0
  8  9  1  0  0  0  0
  9 10  1  0  0  0  0
 10 11  1  0  0  0  0
  6 11  1  0  0  0  0
 11 12  2  0  0  0  0
  4 12  1  0  0  0  0
M  END
>  <Catalog ID>
Z2039659117

>  <PlateID>
1198308-R-SPFL-12

>  <Well>
A06

>  <MW (desalted)>
166.220

>  <ClogP>
-0.209

>  <HBD>
1

>  <TPSA>
38.050

>  <RotBonds>
2

$$$$

            

 12 11  0  0  0  0            999 V2000
    0.0000    0.0000    0.0000 Cl  0  0  0  0  0  0  0  0  0  0  0  0
    2.3571    2.6250    0.0000 C   0  0  0  0  0  0  0  0  0  0  0  0
    2.3571    1.8000    0.0000 N   0  0  0  0  0  0  0  0  0  0  0  0
    3.0716    1.3875    0.0000 C   0  0  0  0  0  0  0  0  0  0  0  0
    3.0716    0.5625    0.0000 C   0  0  0  0  0  0  0  0  0  0  0  0
    3.7861    0.1500    0.0000 C   0  0  0  0  0  0  0  0  0  0  0  0
    3.7861   -0.6750    0.0000 C   0  0  0  0  0  0  0  0  0  0  0  0
    3.0716   -1.0875    0.0000 C   0  0  0  0  0  0  0  0  0  0  0  0
    3.0716   -1.9125    0.0000 O   0  0  0  0  0  0  0  0  0  0  0  0
    3.7861   -2.3250    0.0000 C   0  0  0  0  0  0  0  0  0  0  0  0
    2.3571   -0.6750    0.0000 N   0  0  0  0  0  0  0  0  0  0  0  0
    2.3571    0.1500    0.0000 C   0  0  0  0  0  0  0  0  0  0  0  0
  2  3  1  0  0  0  0
  3  4  1  0  0  0  0
  4  5  1  0  0  0  0
  5  6  2  0  0  0  0
  6  7  1  0  0  0  0
  7  8  2  0  0  0  0
  8  9  1  0  0  0  0
  9 10  1  0  0  0  0
  8 11  1  0  0  0  0
 11 12  2  0  0  0  0
  5 12  1  0  0  0  0
M  END
>  <Catalog ID>
Z2490025030

>  <PlateID>
1198308-R-SPFL-12

>  <Well>
A07

>  <MW (desalted)>
152.194

>  <ClogP>
0.833

>  <HBD>
1

>  <TPSA>
34.150

>  <RotBonds>
3

$$$$

            

 14 14  0  0  0  0            999 V2000
    0.0000    0.0000    0.0000 Cl  0  0  0  0  0  0  0  0  0  0  0  0
    2.3571    2.9785    0.0000 C   0  0  0  0  0  0  0  0  0  0  0  0
    2.3571    2.1535    0.0000 N   0  0  0  0  0  0  0  0  0  0  0  0
    3.0716    1.7410    0.0000 C   0  0  0  0  0  0  0  0  0  0  0  0
    3.0716    0.9160    0.0000 C   0  0  0  0  0  0  0  0  0  0  0  0
    3.7391    0.4310    0.0000 C   0  0  0  0  0  0  0  0  0  0  0  0
    3.4841   -0.3536    0.0000 C   0  0  0  0  0  0  0  0  0  0  0  0
    2.6591   -0.3536    0.0000 O   0  0  0  0  0  0  0  0  0  0  0  0
    2.4042    0.4310    0.0000 N   0  0  0  0  0  0  0  0  0  0  0  0
    3.9690   -1.0210    0.0000 C   0  0  0  0  0  0  0  0  0  0  0  0
    4.7940   -1.0210    0.0000 C   0  0  0  0  0  0  0  0  0  0  0  0
    5.0490   -1.8056    0.0000 C   0  0  0  0  0  0  0  0  0  0  0  0
    4.3815   -2.2906    0.0000 C   0  0  0  0  0  0  0  0  0  0  0  0
    3.7141   -1.8056    0.0000 O   0  0  0  0  0  0  0  0  0  0  0  0
  2  3  1  0  0  0  0
  3  4  1  0  0  0  0
  4  5  1  0  0  0  0
  5  6  1  0  0  0  0
  6  7  2  0  0  0  0
  7  8  1  0  0  0  0
  8  9  1  0  0  0  0
  5  9  2  0  0  0  0
  7 10  1  0  0  0  0
 10 11  2  0  0  0  0
 11 12  1  0  0  0  0
 12 13  2  0  0  0  0
 13 14  1  0  0  0  0
 10 14  1  0  0  0  0
M  END
>  <Catalog ID>
Z752989162

>  <PlateID>
1198308-R-SPFL-12

>  <Well>
A08

>  <MW (desalted)>
178.188

>  <ClogP>
0.973

>  <HBD>
1

>  <TPSA>
51.200

>  <RotBonds>
3

$$$$

            

 11 10  0  0  0  0            999 V2000
    0.0000    0.0000    0.0000 Cl  0  0  0  0  0  0  0  0  0  0  0  0
    4.7594    1.3596    0.0000 C   0  0  0  0  0  0  0  0  0  0  0  0
    4.0449    0.9471    0.0000 C   0  0  0  0  0  0  0  0  0  0  0  0
    3.3304    1.3596    0.0000 C   0  0  0  0  0  0  0  0  0  0  0  0
    4.0449    0.1221    0.0000 N   0  0  0  0  0  0  0  0  0  0  0  0
    4.7124   -0.3628    0.0000 C   0  0  0  0  0  0  0  0  0  0  0  0
    4.4574   -1.1475    0.0000 C   0  0  0  0  0  0  0  0  0  0  0  0
    3.6324   -1.1475    0.0000 N   0  0  0  0  0  0  0  0  0  0  0  0
    3.3775   -0.3628    0.0000 C   0  0  0  0  0  0  0  0  0  0  0  0
    2.5929   -0.1079    0.0000 C   0  0  0  0  0  0  0  0  0  0  0  0
    1.9798   -0.6599    0.0000 O   0  0  0  0  0  0  0  0  0  0  0  0
  2  3  1  0  0  0  0
  3  4  1  0  0  0  0
  3  5  1  0  0  0  0
  5  6  1  0  0  0  0
  6  7  2  0  0  0  0
  7  8  1  0  0  0  0
  8  9  2  0  0  0  0
  5  9  1  0  0  0  0
  9 10  1  0  0  0  0
 10 11  1  0  0  0  0
M  END
>  <Catalog ID>
Z2408371469

>  <PlateID>
1198308-R-SPFL-12

>  <Well>
A09

>  <MW (desalted)>
140.183

>  <ClogP>
-0.213

>  <HBD>
1

>  <TPSA>
38.050

>  <RotBonds>
2

$$$$

            

 11 11  0  0  0  0            999 V2000
    0.0000    3.3000    0.0000 C   0  0  0  0  0  0  0  0  0  0  0  0
    0.0000    2.4750    0.0000 N   0  0  0  0  0  0  0  0  0  0  0  0
    0.7145    2.0625    0.0000 C   0  0  0  0  0  0  0  0  0  0  0  0
    0.7145    1.2375    0.0000 C   0  0  0  0  0  0  0  0  0  0  0  0
    1.4289    0.8250    0.0000 C   0  0  0  0  0  0  0  0  0  0  0  0
    1.4289   -0.0000    0.0000 C   0  0  0  0  0  0  0  0  0  0  0  0
    0.7145   -0.4125    0.0000 C   0  0  0  0  0  0  0  0  0  0  0  0
    0.7145   -1.2375    0.0000 F   0  0  0  0  0  0  0  0  0  0  0  0
    0.0000    0.0000    0.0000 C   0  0  0  0  0  0  0  0  0  0  0  0
    0.0000    0.8250    0.0000 C   0  0  0  0  0  0  0  0  0  0  0  0
   -0.7145    1.2375    0.0000 F   0  0  0  0  0  0  0  0  0  0  0  0
  1  2  1  0  0  0  0
  2  3  1  0  0  0  0
  3  4  1  0  0  0  0
  4  5  2  0  0  0  0
  5  6  1  0  0  0  0
  6  7  2  0  0  0  0
  7  8  1  0  0  0  0
  7  9  1  0  0  0  0
  9 10  2  0  0  0  0
  4 10  1  0  0  0  0
 10 11  1  0  0  0  0
M  END
>  <Catalog ID>
Z102767946

>  <PlateID>
1198308-R-SPFL-12

>  <Well>
A10

>  <MW (desalted)>
157.161

>  <ClogP>
1.796

>  <HBD>
1

>  <TPSA>
12.030

>  <RotBonds>
2

$$$$

            

 11 11  0  0  0  0            999 V2000
    0.7145    2.0625    0.0000 C   0  0  0  0  0  0  0  0  0  0  0  0
    0.7145    1.2375    0.0000 C   0  0  0  0  0  0  0  0  0  0  0  0
    1.4289    0.8250    0.0000 C   0  0  0  0  0  0  0  0  0  0  0  0
    1.4289   -0.0000    0.0000 C   0  0  0  0  0  0  0  0  0  0  0  0
    2.1434   -0.4125    0.0000 C   0  0  0  0  0  0  0  0  0  0  0  0
    0.7145   -0.4125    0.0000 N   0  0  0  0  0  0  0  0  0  0  0  0
    0.0000    0.0000    0.0000 C   0  0  0  0  0  0  0  0  0  0  0  0
   -0.7145   -0.4125    0.0000 C   0  0  0  0  0  0  0  0  0  0  0  0
   -1.4289    0.0000    0.0000 C   0  0  0  0  0  0  0  0  0  0  0  0
   -2.1434   -0.4125    0.0000 O   0  0  0  0  0  0  0  0  0  0  0  0
    0.0000    0.8250    0.0000 C   0  0  0  0  0  0  0  0  0  0  0  0
  1  2  1  0  0  0  0
  2  3  2  0  0  0  0
  3  4  1  0  0  0  0
  4  5  1  0  0  0  0
  4  6  2  0  0  0  0
  6  7  1  0  0  0  0
  7  8  1  0  0  0  0
  8  9  1  0  0  0  0
  9 10  1  0  0  0  0
  7 11  2  0  0  0  0
  2 11  1  0  0  0  0
M  END
>  <Catalog ID>
Z1198169008

>  <PlateID>
1198308-R-SPFL-12

>  <Well>
A11

>  <MW (desalted)>
151.206

>  <ClogP>
0.834

>  <HBD>
1

>  <TPSA>
33.120

>  <RotBonds>
2

$$$$

            

 11 12  0  0  0  0            999 V2000
    1.4289   -2.4750    0.0000 O   0  0  0  0  0  0  0  0  0  0  0  0
    1.4289   -1.6500    0.0000 C   0  0  0  0  0  0  0  0  0  0  0  0
    0.7145   -1.2375    0.0000 N   0  0  0  0  0  0  0  0  0  0  0  0
    0.7145   -0.4125    0.0000 C   0  0  0  0  0  0  0  0  0  0  0  0
    1.4289    0.0000    0.0000 N   0  0  0  0  0  0  0  0  0  0  0  0
    2.1434   -0.4125    0.0000 C   0  0  0  0  0  0  0  0  0  0  0  0
    2.8579    0.0000    0.0000 C   0  0  0  0  0  0  0  0  0  0  0  0
    3.5724   -0.4125    0.0000 C   0  0  0  0  0  0  0  0  0  0  0  0
    3.5724   -1.2375    0.0000 C   0  0  0  0  0  0  0  0  0  0  0  0
    2.8579   -1.6500    0.0000 C   0  0  0  0  0  0  0  0  0  0  0  0
    2.1434   -1.2375    0.0000 C   0  0  0  0  0  0  0  0  0  0  0  0
  1  2  2  0  0  0  0
  2  3  1  0  0  0  0
  3  4  1  0  0  0  0
  4  5  2  0  0  0  0
  5  6  1  0  0  0  0
  6  7  2  0  0  0  0
  7  8  1  0  0  0  0
  8  9  2  0  0  0  0
  9 10  1  0  0  0  0
 10 11  2  0  0  0  0
  2 11  1  0  0  0  0
  6 11  1  0  0  0  0
M  END
>  <Catalog ID>
Z56862715

>  <PlateID>
1198308-R-SPFL-12

>  <Well>
B02

>  <MW (desalted)>
146.146

>  <ClogP>
0.305

>  <HBD>
1

>  <TPSA>
41.460

>  <RotBonds>
0

$$$$

            

 12 13  0  0  0  0            999 V2000
   -0.9962   -2.1269    0.0000 N   0  0  0  0  0  0  0  0  0  0  0  0
   -0.5837   -1.4124    0.0000 C   0  0  0  0  0  0  0  0  0  0  0  0
   -0.1712   -0.6979    0.0000 C   0  0  0  0  0  0  0  0  0  0  0  0
    0.6538   -0.6979    0.0000 C   0  0  0  0  0  0  0  0  0  0  0  0
    1.1387   -0.0305    0.0000 C   0  0  0  0  0  0  0  0  0  0  0  0
    1.9233   -0.2854    0.0000 N   0  0  0  0  0  0  0  0  0  0  0  0
    2.6378    0.1271    0.0000 C   0  0  0  0  0  0  0  0  0  0  0  0
    3.3523   -0.2854    0.0000 C   0  0  0  0  0  0  0  0  0  0  0  0
    3.3523   -1.1104    0.0000 C   0  0  0  0  0  0  0  0  0  0  0  0
    2.6378   -1.5229    0.0000 C   0  0  0  0  0  0  0  0  0  0  0  0
    1.9233   -1.1104    0.0000 C   0  0  0  0  0  0  0  0  0  0  0  0
    1.1387   -1.3654    0.0000 N   0  0  0  0  0  0  0  0  0  0  0  0
  1  2  3  0  0  0  0
  2  3  1  0  0  0  0
  3  4  1  0  0  0  0
  4  5  2  0  0  0  0
  5  6  1  0  0  0  0
  6  7  1  0  0  0  0
  7  8  2  0  0  0  0
  8  9  1  0  0  0  0
  9 10  2  0  0  0  0
 10 11  1  0  0  0  0
  6 11  1  0  0  0  0
 11 12  2  0  0  0  0
  4 12  1  0  0  0  0
M  END
>  <Catalog ID>
Z56763816

>  <PlateID>
1198308-R-SPFL-12

>  <Well>
B03

>  <MW (desalted)>
157.172

>  <ClogP>
0.828

>  <HBD>
0

>  <TPSA>
41.090

>  <RotBonds>
1

$$$$

            

 13 12  0  0  0  0            999 V2000
    0.0000    0.0000    0.0000 Cl  0  0  0  0  0  0  0  0  0  0  0  0
    2.0036    0.0000    0.0000 Cl  0  0  0  0  0  0  0  0  0  0  0  0
   -2.1007   -3.3000    0.0000 C   0  0  0  0  0  0  0  0  0  0  0  0
   -1.2757   -3.3000    0.0000 N   0  0  0  0  0  0  0  0  0  0  0  0
   -0.7908   -2.6326    0.0000 C   0  0  0  0  0  0  0  0  0  0  0  0
   -0.0062   -2.8875    0.0000 C   0  0  0  0  0  0  0  0  0  0  0  0
    0.7083   -2.4750    0.0000 C   0  0  0  0  0  0  0  0  0  0  0  0
    0.7083   -1.6500    0.0000 N   0  0  0  0  0  0  0  0  0  0  0  0
    1.4228   -2.8875    0.0000 C   0  0  0  0  0  0  0  0  0  0  0  0
    1.4228   -3.7125    0.0000 C   0  0  0  0  0  0  0  0  0  0  0  0
    0.7083   -4.1250    0.0000 C   0  0  0  0  0  0  0  0  0  0  0  0
   -0.0062   -3.7125    0.0000 C   0  0  0  0  0  0  0  0  0  0  0  0
   -0.7908   -3.9674    0.0000 N   0  0  0  0  0  0  0  0  0  0  0  0
  3  4  1  0  0  0  0
  4  5  1  0  0  0  0
  5  6  2  0  0  0  0
  6  7  1  0  0  0  0
  7  8  1  0  0  0  0
  7  9  1  0  0  0  0
  9 10  1  0  0  0  0
 10 11  1  0  0  0  0
 11 12  1  0  0  0  0
  6 12  1  0  0  0  0
 12 13  2  0  0  0  0
  4 13  1  0  0  0  0
M  END
>  <Catalog ID>
Z2010010265

>  <PlateID>
1198308-R-SPFL-12

>  <Well>
B04

>  <MW (desalted)>
151.209

>  <ClogP>
-0.048

>  <HBD>
1

>  <TPSA>
43.840

>  <RotBonds>
0

$$$$

            

 13 14  0  0  0  0            999 V2000
    0.7145   -2.8875    0.0000 O   0  0  0  0  0  0  0  0  0  0  0  0
    1.4289   -2.4750    0.0000 C   0  0  0  0  0  0  0  0  0  0  0  0
    2.1434   -2.8875    0.0000 O   0  0  0  0  0  0  0  0  0  0  0  0
    1.4289   -1.6500    0.0000 C   0  0  0  0  0  0  0  0  0  0  0  0
    0.7145   -1.2375    0.0000 N   0  0  0  0  0  0  0  0  0  0  0  0
    0.7145   -0.4125    0.0000 C   0  0  0  0  0  0  0  0  0  0  0  0
    1.4289    0.0000    0.0000 C   0  0  0  0  0  0  0  0  0  0  0  0
    2.1434   -0.4125    0.0000 C   0  0  0  0  0  0  0  0  0  0  0  0
    2.8579    0.0000    0.0000 C   0  0  0  0  0  0  0  0  0  0  0  0
    3.5724   -0.4125    0.0000 C   0  0  0  0  0  0  0  0  0  0  0  0
    3.5724   -1.2375    0.0000 C   0  0  0  0  0  0  0  0  0  0  0  0
    2.8579   -1.6500    0.0000 C   0  0  0  0  0  0  0  0  0  0  0  0
    2.1434   -1.2375    0.0000 C   0  0  0  0  0  0  0  0  0  0  0  0
  1  2  1  0  0  0  0
  2  3  2  0  0  0  0
  2  4  1  0  0  0  0
  4  5  2  0  0  0  0
  5  6  1  0  0  0  0
  6  7  2  0  0  0  0
  7  8  1  0  0  0  0
  8  9  2  0  0  0  0
  9 10  1  0  0  0  0
 10 11  2  0  0  0  0
 11 12  1  0  0  0  0
 12 13  2  0  0  0  0
  4 13  1  0  0  0  0
  8 13  1  0  0  0  0
M  END
>  <Catalog ID>
Z844451606

>  <PlateID>
1198308-R-SPFL-12

>  <Well>
B05

>  <MW (desalted)>
173.168

>  <ClogP>
2.173

>  <HBD>
1

>  <TPSA>
50.190

>  <RotBonds>
1

$$$$

            

 11 11  0  0  0  0            999 V2000
   -0.7145    2.8875    0.0000 N   0  0  0  0  0  0  0  0  0  0  0  0
    0.0000    2.4750    0.0000 S   0  0  0  0  0  0  0  0  0  0  0  0
   -0.4125    1.7605    0.0000 O   0  0  0  0  0  0  0  0  0  0  0  0
    0.4125    3.1895    0.0000 O   0  0  0  0  0  0  0  0  0  0  0  0
    0.7145    2.0625    0.0000 C   0  0  0  0  0  0  0  0  0  0  0  0
    0.7145    1.2375    0.0000 C   0  0  0  0  0  0  0  0  0  0  0  0
    1.4289    0.8250    0.0000 C   0  0  0  0  0  0  0  0  0  0  0  0
    1.4289   -0.0000    0.0000 C   0  0  0  0  0  0  0  0  0  0  0  0
    0.7145   -0.4125    0.0000 C   0  0  0  0  0  0  0  0  0  0  0  0
    0.0000    0.0000    0.0000 C   0  0  0  0  0  0  0  0  0  0  0  0
    0.0000    0.8250    0.0000 C   0  0  0  0  0  0  0  0  0  0  0  0
  1  2  1  0  0  0  0
  2  3  2  0  0  0  0
  2  4  2  0  0  0  0
  2  5  1  0  0  0  0
  5  6  1  0  0  0  0
  6  7  1  0  0  0  0
  7  8  1  0  0  0  0
  8  9  1  0  0  0  0
  9 10  1  0  0  0  0
 10 11  1  0  0  0  0
  6 11  1  0  0  0  0
M  END
>  <Catalog ID>
Z734461532

>  <PlateID>
1198308-R-SPFL-12

>  <Well>
B06

>  <MW (desalted)>
177.265

>  <ClogP>
1.156

>  <HBD>
1

>  <TPSA>
60.160

>  <RotBonds>
2

$$$$

            

 14 13  0  0  0  0            999 V2000
    0.0000    0.0000    0.0000 Cl  0  0  0  0  0  0  0  0  0  0  0  0
    2.0036    0.0000    0.0000 Cl  0  0  0  0  0  0  0  0  0  0  0  0
    0.7145   -5.3625    0.0000 C   0  0  0  0  0  0  0  0  0  0  0  0
   -0.0000   -5.7750    0.0000 C   0  0  0  0  0  0  0  0  0  0  0  0
   -0.7145   -5.3625    0.0000 N   0  0  0  0  0  0  0  0  0  0  0  0
   -0.7145   -4.5375    0.0000 C   0  0  0  0  0  0  0  0  0  0  0  0
   -0.0000   -4.1250    0.0000 C   0  0  0  0  0  0  0  0  0  0  0  0
    0.7145   -4.5375    0.0000 C   0  0  0  0  0  0  0  0  0  0  0  0
    0.0000   -3.3000    0.0000 C   0  0  0  0  0  0  0  0  0  0  0  0
   -0.7145   -2.8875    0.0000 C   0  0  0  0  0  0  0  0  0  0  0  0
   -0.7145   -2.0625    0.0000 C   0  0  0  0  0  0  0  0  0  0  0  0
    0.0000   -1.6500    0.0000 C   0  0  0  0  0  0  0  0  0  0  0  0
    0.7145   -2.0625    0.0000 N   0  0  0  0  0  0  0  0  0  0  0  0
    0.7145   -2.8875    0.0000 C   0  0  0  0  0  0  0  0  0  0  0  0
  3  4  1  0  0  0  0
  4  5  1  0  0  0  0
  5  6  1  0  0  0  0
  6  7  1  0  0  0  0
  7  8  1  0  0  0  0
  3  8  1  0  0  0  0
  7  9  1  0  0  0  0
  9 10  2  0  0  0  0
 10 11  1  0  0  0  0
 11 12  2  0  0  0  0
 12 13  1  0  0  0  0
 13 14  2  0  0  0  0
  9 14  1  0  0  0  0
M  END
>  <Catalog ID>
Z2380440630

>  <PlateID>
1198308-R-SPFL-12

>  <Well>
B07

>  <MW (desalted)>
162.232

>  <ClogP>
0.996

>  <HBD>
1

>  <TPSA>
24.920

>  <RotBonds>
1

$$$$

            

 10 10  0  0  0  0            999 V2000
    0.0000    3.3000    0.0000 C   0  0  0  0  0  0  0  0  0  0  0  0
    0.0000    2.4750    0.0000 C   0  0  0  0  0  0  0  0  0  0  0  0
    0.7145    2.0625    0.0000 O   0  0  0  0  0  0  0  0  0  0  0  0
    0.7145    1.2375    0.0000 C   0  0  0  0  0  0  0  0  0  0  0  0
    1.4289    0.8250    0.0000 N   0  0  0  0  0  0  0  0  0  0  0  0
    1.4289   -0.0000    0.0000 C   0  0  0  0  0  0  0  0  0  0  0  0
    0.7145   -0.4125    0.0000 C   0  0  0  0  0  0  0  0  0  0  0  0
    0.7145   -1.2375    0.0000 Cl  0  0  0  0  0  0  0  0  0  0  0  0
    0.0000    0.0000    0.0000 C   0  0  0  0  0  0  0  0  0  0  0  0
    0.0000    0.8250    0.0000 N   0  0  0  0  0  0  0  0  0  0  0  0
  1  2  1  0  0  0  0
  2  3  1  0  0  0  0
  3  4  1  0  0  0  0
  4  5  2  0  0  0  0
  5  6  1  0  0  0  0
  6  7  2  0  0  0  0
  7  8  1  0  0  0  0
  7  9  1  0  0  0  0
  9 10  2  0  0  0  0
  4 10  1  0  0  0  0
M  END
>  <Catalog ID>
Z1222423631

>  <PlateID>
1198308-R-SPFL-12

>  <Well>
B08

>  <MW (desalted)>
158.586

>  <ClogP>
1.893

>  <HBD>
0

>  <TPSA>
35.010

>  <RotBonds>
2

$$$$

            

 13 12  0  0  0  0            999 V2000
    0.0000    0.0000    0.0000 Cl  0  0  0  0  0  0  0  0  0  0  0  0
    2.0036    0.0000    0.0000 Cl  0  0  0  0  0  0  0  0  0  0  0  0
   -1.8919   -3.2619    0.0000 C   0  0  0  0  0  0  0  0  0  0  0  0
   -1.2245   -2.7770    0.0000 N   0  0  0  0  0  0  0  0  0  0  0  0
   -1.2245   -1.9520    0.0000 C   0  0  0  0  0  0  0  0  0  0  0  0
   -0.4398   -1.6970    0.0000 C   0  0  0  0  0  0  0  0  0  0  0  0
    0.0451   -2.3645    0.0000 C   0  0  0  0  0  0  0  0  0  0  0  0
   -0.4398   -3.0319    0.0000 C   0  0  0  0  0  0  0  0  0  0  0  0
    0.4576   -1.6500    0.0000 C   0  0  0  0  0  0  0  0  0  0  0  0
    1.2826   -1.6500    0.0000 C   0  0  0  0  0  0  0  0  0  0  0  0
    1.6951   -2.3645    0.0000 C   0  0  0  0  0  0  0  0  0  0  0  0
    1.2826   -3.0789    0.0000 N   0  0  0  0  0  0  0  0  0  0  0  0
    0.4576   -3.0789    0.0000 C   0  0  0  0  0  0  0  0  0  0  0  0
  3  4  1  0  0  0  0
  4  5  1  0  0  0  0
  5  6  1  0  0  0  0
  6  7  1  0  0  0  0
  7  8  1  0  0  0  0
  4  8  1  0  0  0  0
  7  9  1  0  0  0  0
  9 10  1  0  0  0  0
 10 11  1  0  0  0  0
 11 12  1  0  0  0  0
 12 13  1  0  0  0  0
  7 13  1  0  0  0  0
M  END
>  <Catalog ID>
Z2234631241

>  <PlateID>
1198308-R-SPFL-12

>  <Well>
B09

>  <MW (desalted)>
154.253

>  <ClogP>
0.592

>  <HBD>
1

>  <TPSA>
15.270

>  <RotBonds>
0

$$$$

            

 10 10  0  0  0  0            999 V2000
    0.5678    1.9393    0.0000 C   0  0  0  0  0  0  0  0  0  0  0  0
    0.5678    1.1143    0.0000 C   0  0  0  0  0  0  0  0  0  0  0  0
    1.2352    0.6294    0.0000 C   0  0  0  0  0  0  0  0  0  0  0  0
    0.9803   -0.1553    0.0000 C   0  0  0  0  0  0  0  0  0  0  0  0
    0.1553   -0.1553    0.0000 O   0  0  0  0  0  0  0  0  0  0  0  0
   -0.0997    0.6294    0.0000 C   0  0  0  0  0  0  0  0  0  0  0  0
   -0.8843    0.8843    0.0000 C   0  0  0  0  0  0  0  0  0  0  0  0
   -1.0558    1.6913    0.0000 C   0  0  0  0  0  0  0  0  0  0  0  0
   -1.8405    1.9462    0.0000 O   0  0  0  0  0  0  0  0  0  0  0  0
   -0.4427    2.2433    0.0000 O   0  0  0  0  0  0  0  0  0  0  0  0
  1  2  1  0  0  0  0
  2  3  1  0  0  0  0
  3  4  2  0  0  0  0
  4  5  1  0  0  0  0
  5  6  1  0  0  0  0
  2  6  2  0  0  0  0
  6  7  1  0  0  0  0
  7  8  1  0  0  0  0
  8  9  2  0  0  0  0
  8 10  1  0  0  0  0
M  END
>  <Catalog ID>
Z1205656430

>  <PlateID>
1198308-R-SPFL-12

>  <Well>
B10

>  <MW (desalted)>
140.137

>  <ClogP>
1.039

>  <HBD>
1

>  <TPSA>
50.440

>  <RotBonds>
2

$$$$

            

 12 10  0  0  0  0            999 V2000
    0.0000    0.0000    0.0000 Cl  0  0  0  0  0  0  0  0  0  0  0  0
    2.0036    0.0000    0.0000 Cl  0  0  0  0  0  0  0  0  0  0  0  0
    1.1571   -1.6500    0.0000 C   0  0  0  0  0  0  0  0  0  0  0  0
    0.4426   -2.0625    0.0000 C   0  0  0  0  0  0  0  0  0  0  0  0
    0.4426   -2.8875    0.0000 N   0  0  0  0  0  0  0  0  0  0  0  0
    1.1101   -3.3724    0.0000 C   0  0  0  0  0  0  0  0  0  0  0  0
    0.8551   -4.1570    0.0000 C   0  0  0  0  0  0  0  0  0  0  0  0
    0.0301   -4.1570    0.0000 N   0  0  0  0  0  0  0  0  0  0  0  0
   -0.2248   -3.3724    0.0000 C   0  0  0  0  0  0  0  0  0  0  0  0
   -1.0094   -3.1175    0.0000 C   0  0  0  0  0  0  0  0  0  0  0  0
   -1.6225   -3.6695    0.0000 C   0  0  0  0  0  0  0  0  0  0  0  0
   -1.1810   -2.3105    0.0000 N   0  0  0  0  0  0  0  0  0  0  0  0
  3  4  1  0  0  0  0
  4  5  1  0  0  0  0
  5  6  1  0  0  0  0
  6  7  2  0  0  0  0
  7  8  1  0  0  0  0
  8  9  2  0  0  0  0
  5  9  1  0  0  0  0
  9 10  1  0  0  0  0
 10 11  1  0  0  0  0
 10 12  1  0  0  0  0
M  END
>  <Catalog ID>
Z2235409223

>  <PlateID>
1198308-R-SPFL-12

>  <Well>
B11

>  <MW (desalted)>
139.198

>  <ClogP>
-0.223

>  <HBD>
1

>  <TPSA>
43.840

>  <RotBonds>
2

$$$$

            

 13 13  0  0  0  0            999 V2000
    0.0000    0.0000    0.0000 Cl  0  0  0  0  0  0  0  0  0  0  0  0
    2.4353    2.1123    0.0000 C   0  0  0  0  0  0  0  0  0  0  0  0
    2.4353    1.2873    0.0000 C   0  0  0  0  0  0  0  0  0  0  0  0
    3.1027    0.8024    0.0000 N   0  0  0  0  0  0  0  0  0  0  0  0
    2.8478    0.0178    0.0000 C   0  0  0  0  0  0  0  0  0  0  0  0
    2.0228    0.0178    0.0000 N   0  0  0  0  0  0  0  0  0  0  0  0
    1.7679    0.8024    0.0000 O   0  0  0  0  0  0  0  0  0  0  0  0
    3.3327   -0.6497    0.0000 C   0  0  0  0  0  0  0  0  0  0  0  0
    2.6182   -1.0622    0.0000 N   0  0  0  0  0  0  0  0  0  0  0  0
    3.9458   -0.0976    0.0000 C   0  0  0  0  0  0  0  0  0  0  0  0
    4.6603   -0.5101    0.0000 C   0  0  0  0  0  0  0  0  0  0  0  0
    4.4888   -1.3171    0.0000 C   0  0  0  0  0  0  0  0  0  0  0  0
    3.6683   -1.4033    0.0000 C   0  0  0  0  0  0  0  0  0  0  0  0
  2  3  1  0  0  0  0
  3  4  2  0  0  0  0
  4  5  1  0  0  0  0
  5  6  2  0  0  0  0
  6  7  1  0  0  0  0
  3  7  1  0  0  0  0
  5  8  1  0  0  0  0
  8  9  1  0  0  0  0
  8 10  1  0  0  0  0
 10 11  1  0  0  0  0
 11 12  1  0  0  0  0
 12 13  1  0  0  0  0
  8 13  1  0  0  0  0
M  END
>  <Catalog ID>
Z235344801

>  <PlateID>
1198308-R-SPFL-12

>  <Well>
C02

>  <MW (desalted)>
167.208

>  <ClogP>
0.177

>  <HBD>
1

>  <TPSA>
64.940

>  <RotBonds>
1

$$$$

            

 11 11  0  0  0  0            999 V2000
   -0.1467    2.3518    0.0000 C   0  0  0  0  0  0  0  0  0  0  0  0
    0.5678    1.9393    0.0000 C   0  0  0  0  0  0  0  0  0  0  0  0
    1.2822    2.3518    0.0000 C   0  0  0  0  0  0  0  0  0  0  0  0
    0.5678    1.1143    0.0000 C   0  0  0  0  0  0  0  0  0  0  0  0
    1.2352    0.6294    0.0000 C   0  0  0  0  0  0  0  0  0  0  0  0
    0.9803   -0.1553    0.0000 C   0  0  0  0  0  0  0  0  0  0  0  0
    0.1553   -0.1553    0.0000 O   0  0  0  0  0  0  0  0  0  0  0  0
   -0.0997    0.6294    0.0000 N   0  0  0  0  0  0  0  0  0  0  0  0
    1.4652   -0.8227    0.0000 C   0  0  0  0  0  0  0  0  0  0  0  0
    2.2857   -0.7365    0.0000 O   0  0  0  0  0  0  0  0  0  0  0  0
    1.1296   -1.5764    0.0000 O   0  0  0  0  0  0  0  0  0  0  0  0
  1  2  1  0  0  0  0
  2  3  1  0  0  0  0
  2  4  1  0  0  0  0
  4  5  1  0  0  0  0
  5  6  2  0  0  0  0
  6  7  1  0  0  0  0
  7  8  1  0  0  0  0
  4  8  2  0  0  0  0
  6  9  1  0  0  0  0
  9 10  2  0  0  0  0
  9 11  1  0  0  0  0
M  END
>  <Catalog ID>
Z975823514

>  <PlateID>
1198308-R-SPFL-12

>  <Well>
C03

>  <MW (desalted)>
155.151

>  <ClogP>
1.544

>  <HBD>
1

>  <TPSA>
63.330

>  <RotBonds>
2

$$$$

            

 12 13  0  0  0  0            999 V2000
    0.0000   -0.0000    0.0000 O   0  0  0  0  0  0  0  0  0  0  0  0
    0.7145   -0.4125    0.0000 C   0  0  0  0  0  0  0  0  0  0  0  0
    0.7145   -1.2375    0.0000 C   0  0  0  0  0  0  0  0  0  0  0  0
    1.2978   -1.8209    0.0000 C   0  0  0  0  0  0  0  0  0  0  0  0
    0.7145   -2.4042    0.0000 N   0  0  0  0  0  0  0  0  0  0  0  0
    0.1311   -1.8209    0.0000 C   0  0  0  0  0  0  0  0  0  0  0  0
    0.7145   -3.2292    0.0000 C   0  0  0  0  0  0  0  0  0  0  0  0
    1.4289   -3.6417    0.0000 C   0  0  0  0  0  0  0  0  0  0  0  0
    1.4289   -4.4667    0.0000 C   0  0  0  0  0  0  0  0  0  0  0  0
    0.7145   -4.8792    0.0000 C   0  0  0  0  0  0  0  0  0  0  0  0
    0.0000   -4.4667    0.0000 C   0  0  0  0  0  0  0  0  0  0  0  0
    0.0000   -3.6417    0.0000 N   0  0  0  0  0  0  0  0  0  0  0  0
  1  2  1  0  0  0  0
  2  3  1  0  0  0  0
  3  4  1  0  0  0  0
  4  5  1  0  0  0  0
  5  6  1  0  0  0  0
  3  6  1  0  0  0  0
  5  7  1  0  0  0  0
  7  8  2  0  0  0  0
  8  9  1  0  0  0  0
  9 10  2  0  0  0  0
 10 11  1  0  0  0  0
 11 12  2  0  0  0  0
  7 12  1  0  0  0  0
M  END
>  <Catalog ID>
Z1269752693

>  <PlateID>
1198308-R-SPFL-12

>  <Well>
C04

>  <MW (desalted)>
164.204

>  <ClogP>
-0.554

>  <HBD>
1

>  <TPSA>
36.360

>  <RotBonds>
2

$$$$

            

 12 13  0  0  0  0            999 V2000
    0.0962   -1.4834    0.0000 O   0  0  0  0  0  0  0  0  0  0  0  0
    0.8106   -1.0709    0.0000 C   0  0  0  0  0  0  0  0  0  0  0  0
    1.5251   -1.4834    0.0000 O   0  0  0  0  0  0  0  0  0  0  0  0
    0.8106   -0.2459    0.0000 C   0  0  0  0  0  0  0  0  0  0  0  0
    0.0962    0.1666    0.0000 C   0  0  0  0  0  0  0  0  0  0  0  0
    0.0962    0.9916    0.0000 C   0  0  0  0  0  0  0  0  0  0  0  0
    0.8106    1.4041    0.0000 C   0  0  0  0  0  0  0  0  0  0  0  0
    0.8106    2.2291    0.0000 F   0  0  0  0  0  0  0  0  0  0  0  0
    1.5251    0.9916    0.0000 C   0  0  0  0  0  0  0  0  0  0  0  0
    1.5251    0.1666    0.0000 C   0  0  0  0  0  0  0  0  0  0  0  0
    0.9481    0.3041    0.0000 C   0  0  0  0  0  0  0  0  0  0  0  0
    0.9481    0.8541    0.0000 C   0  0  0  0  0  0  0  0  0  0  0  0
  1  2  1  0  0  0  0
  2  3  2  0  0  0  0
  2  4  1  0  0  0  0
  4  5  1  0  0  0  0
  5  6  1  0  0  0  0
  6  7  1  0  0  0  0
  7  8  1  0  0  0  0
  7  9  1  0  0  0  0
  9 10  1  0  0  0  0
  4 10  1  0  0  0  0
  4 11  1  0  0  0  0
 11 12  1  0  0  0  0
  7 12  1  0  0  0  0
M  END
>  <Catalog ID>
Z1262513006

>  <PlateID>
1198308-R-SPFL-12

>  <Well>
C05

>  <MW (desalted)>
172.197

>  <ClogP>
1.544

>  <HBD>
1

>  <TPSA>
37.300

>  <RotBonds>
1

$$$$

            

 11 11  0  0  0  0            999 V2000
    0.0000    0.0000    0.0000 Cl  0  0  0  0  0  0  0  0  0  0  0  0
    3.0716   -1.9234    0.0000 C   0  0  0  0  0  0  0  0  0  0  0  0
    2.4883   -1.3400    0.0000 C   0  0  0  0  0  0  0  0  0  0  0  0
    3.0716   -0.7567    0.0000 C   0  0  0  0  0  0  0  0  0  0  0  0
    3.6550   -1.3400    0.0000 C   0  0  0  0  0  0  0  0  0  0  0  0
    3.0716    0.0683    0.0000 C   0  0  0  0  0  0  0  0  0  0  0  0
    2.3571    0.4808    0.0000 C   0  0  0  0  0  0  0  0  0  0  0  0
    2.3571    1.3058    0.0000 S   0  0  0  0  0  0  0  0  0  0  0  0
    3.0716    1.7183    0.0000 C   0  0  0  0  0  0  0  0  0  0  0  0
    3.7861    1.3058    0.0000 C   0  0  0  0  0  0  0  0  0  0  0  0
    3.7861    0.4808    0.0000 N   0  0  0  0  0  0  0  0  0  0  0  0
  2  3  1  0  0  0  0
  3  4  1  0  0  0  0
  4  5  1  0  0  0  0
  2  5  1  0  0  0  0
  4  6  1  0  0  0  0
  6  7  1  0  0  0  0
  7  8  1  0  0  0  0
  8  9  1  0  0  0  0
  9 10  1  0  0  0  0
 10 11  1  0  0  0  0
  6 11  1  0  0  0  0
M  END
>  <Catalog ID>
Z2327393511

>  <PlateID>
1198308-R-SPFL-12

>  <Well>
C06

>  <MW (desalted)>
157.276

>  <ClogP>
1.818

>  <HBD>
1

>  <TPSA>
12.030

>  <RotBonds>
1

$$$$

            

 13 12  0  0  0  0            999 V2000
    0.0000    0.0000    0.0000 Cl  0  0  0  0  0  0  0  0  0  0  0  0
    2.0036    0.0000    0.0000 Cl  0  0  0  0  0  0  0  0  0  0  0  0
    0.7145   -2.0625    0.0000 C   0  0  0  0  0  0  0  0  0  0  0  0
    0.7145   -2.8875    0.0000 C   0  0  0  0  0  0  0  0  0  0  0  0
    0.0000   -3.3000    0.0000 C   0  0  0  0  0  0  0  0  0  0  0  0
   -0.7145   -2.8875    0.0000 C   0  0  0  0  0  0  0  0  0  0  0  0
   -0.7145   -2.0625    0.0000 C   0  0  0  0  0  0  0  0  0  0  0  0
   -0.0000   -1.6500    0.0000 N   0  0  0  0  0  0  0  0  0  0  0  0
   -0.0000   -4.1250    0.0000 C   0  0  0  0  0  0  0  0  0  0  0  0
    0.6674   -4.6099    0.0000 N   0  0  0  0  0  0  0  0  0  0  0  0
    0.4125   -5.3945    0.0000 C   0  0  0  0  0  0  0  0  0  0  0  0
   -0.4125   -5.3945    0.0000 C   0  0  0  0  0  0  0  0  0  0  0  0
   -0.6674   -4.6099    0.0000 O   0  0  0  0  0  0  0  0  0  0  0  0
  3  4  1  0  0  0  0
  4  5  1  0  0  0  0
  5  6  1  0  0  0  0
  6  7  1  0  0  0  0
  7  8  1  0  0  0  0
  3  8  1  0  0  0  0
  5  9  1  0  0  0  0
  9 10  2  0  0  0  0
 10 11  1  0  0  0  0
 11 12  2  0  0  0  0
 12 13  1  0  0  0  0
  9 13  1  0  0  0  0
M  END
>  <Catalog ID>
Z2408581569

>  <PlateID>
1198308-R-SPFL-12

>  <Well>
C07

>  <MW (desalted)>
152.194

>  <ClogP>
-0.208

>  <HBD>
1

>  <TPSA>
38.060

>  <RotBonds>
1

$$$$

            

 12 12  0  0  0  0            999 V2000
    0.0000    0.0000    0.0000 Cl  0  0  0  0  0  0  0  0  0  0  0  0
    4.0796    2.2075    0.0000 C   0  0  0  0  0  0  0  0  0  0  0  0
    4.0796    1.3825    0.0000 C   0  0  0  0  0  0  0  0  0  0  0  0
    4.7470    0.8976    0.0000 N   0  0  0  0  0  0  0  0  0  0  0  0
    4.4921    0.1130    0.0000 O   0  0  0  0  0  0  0  0  0  0  0  0
    3.6671    0.1130    0.0000 C   0  0  0  0  0  0  0  0  0  0  0  0
    3.4121    0.8976    0.0000 N   0  0  0  0  0  0  0  0  0  0  0  0
    3.1821   -0.5545    0.0000 C   0  0  0  0  0  0  0  0  0  0  0  0
    3.4371   -1.3391    0.0000 C   0  0  0  0  0  0  0  0  0  0  0  0
    2.7696   -1.8240    0.0000 C   0  0  0  0  0  0  0  0  0  0  0  0
    2.1022   -1.3391    0.0000 N   0  0  0  0  0  0  0  0  0  0  0  0
    2.3571   -0.5545    0.0000 C   0  0  0  0  0  0  0  0  0  0  0  0
  2  3  1  0  0  0  0
  3  4  2  0  0  0  0
  4  5  1  0  0  0  0
  5  6  1  0  0  0  0
  6  7  2  0  0  0  0
  3  7  1  0  0  0  0
  6  8  1  0  0  0  0
  8  9  1  0  0  0  0
  9 10  1  0  0  0  0
 10 11  1  0  0  0  0
 11 12  1  0  0  0  0
  8 12  1  0  0  0  0
M  END
>  <Catalog ID>
Z1473029576

>  <PlateID>
1198308-R-SPFL-12

>  <Well>
C08

>  <MW (desalted)>
153.182

>  <ClogP>
-0.675

>  <HBD>
1

>  <TPSA>
50.950

>  <RotBonds>
1

$$$$

            

 11 11  0  0  0  0            999 V2000
    0.0000    2.4750    0.0000 C   0  0  0  0  0  0  0  0  0  0  0  0
    0.7145    2.0625    0.0000 C   0  0  0  0  0  0  0  0  0  0  0  0
    1.4289    2.4750    0.0000 C   0  0  0  0  0  0  0  0  0  0  0  0
    0.7145    1.2375    0.0000 C   0  0  0  0  0  0  0  0  0  0  0  0
    1.4289    0.8250    0.0000 C   0  0  0  0  0  0  0  0  0  0  0  0
    1.4289   -0.0000    0.0000 C   0  0  0  0  0  0  0  0  0  0  0  0
    0.7145   -0.4125    0.0000 C   0  0  0  0  0  0  0  0  0  0  0  0
    0.7145   -1.2375    0.0000 C   0  0  0  0  0  0  0  0  0  0  0  0
    1.4289   -1.6500    0.0000 N   0  0  0  0  0  0  0  0  0  0  0  0
    0.0000    0.0000    0.0000 C   0  0  0  0  0  0  0  0  0  0  0  0
    0.0000    0.8250    0.0000 N   0  0  0  0  0  0  0  0  0  0  0  0
  1  2  1  0  0  0  0
  2  3  1  0  0  0  0
  2  4  1  0  0  0  0
  4  5  2  0  0  0  0
  5  6  1  0  0  0  0
  6  7  2  0  0  0  0
  7  8  1  0  0  0  0
  8  9  1  0  0  0  0
  7 10  1  0  0  0  0
 10 11  2  0  0  0  0
  4 11  1  0  0  0  0
M  END
>  <Catalog ID>
Z1255393925

>  <PlateID>
1198308-R-SPFL-12

>  <Well>
C09

>  <MW (desalted)>
150.221

>  <ClogP>
1.024

>  <HBD>
1

>  <TPSA>
38.910

>  <RotBonds>
2

$$$$

            

 12 13  0  0  0  0            999 V2000
   -0.1781   -3.1062    0.0000 O   0  0  0  0  0  0  0  0  0  0  0  0
    0.0768   -2.3215    0.0000 C   0  0  0  0  0  0  0  0  0  0  0  0
    0.8838   -2.1500    0.0000 C   0  0  0  0  0  0  0  0  0  0  0  0
    1.1387   -1.3654    0.0000 C   0  0  0  0  0  0  0  0  0  0  0  0
    0.6538   -0.6979    0.0000 N   0  0  0  0  0  0  0  0  0  0  0  0
    1.1387   -0.0305    0.0000 O   0  0  0  0  0  0  0  0  0  0  0  0
    1.9233   -0.2854    0.0000 C   0  0  0  0  0  0  0  0  0  0  0  0
    2.6378    0.1271    0.0000 C   0  0  0  0  0  0  0  0  0  0  0  0
    3.3523   -0.2854    0.0000 C   0  0  0  0  0  0  0  0  0  0  0  0
    3.3523   -1.1104    0.0000 C   0  0  0  0  0  0  0  0  0  0  0  0
    2.6378   -1.5229    0.0000 C   0  0  0  0  0  0  0  0  0  0  0  0
    1.9233   -1.1104    0.0000 C   0  0  0  0  0  0  0  0  0  0  0  0
  1  2  1  0  0  0  0
  2  3  1  0  0  0  0
  3  4  1  0  0  0  0
  4  5  2  0  0  0  0
  5  6  1  0  0  0  0
  6  7  1  0  0  0  0
  7  8  2  0  0  0  0
  8  9  1  0  0  0  0
  9 10  2  0  0  0  0
 10 11  1  0  0  0  0
 11 12  2  0  0  0  0
  4 12  1  0  0  0  0
  7 12  1  0  0  0  0
M  END
>  <Catalog ID>
Z1198176704

>  <PlateID>
1198308-R-SPFL-12

>  <Well>
C10

>  <MW (desalted)>
163.173

>  <ClogP>
0.466

>  <HBD>
1

>  <TPSA>
46.260

>  <RotBonds>
2

$$$$

            

 12 12  0  0  0  0            999 V2000
    0.0000    0.0000    0.0000 Cl  0  0  0  0  0  0  0  0  0  0  0  0
    3.0716   -1.5000    0.0000 N   0  0  0  0  0  0  0  0  0  0  0  0
    3.0716   -0.6750    0.0000 C   0  0  0  0  0  0  0  0  0  0  0  0
    2.3571   -0.2625    0.0000 C   0  0  0  0  0  0  0  0  0  0  0  0
    2.3571    0.5625    0.0000 C   0  0  0  0  0  0  0  0  0  0  0  0
    3.0716    0.9750    0.0000 O   0  0  0  0  0  0  0  0  0  0  0  0
    3.7861    0.5625    0.0000 C   0  0  0  0  0  0  0  0  0  0  0  0
    4.5006    0.9750    0.0000 C   0  0  0  0  0  0  0  0  0  0  0  0
    5.2150    0.5625    0.0000 C   0  0  0  0  0  0  0  0  0  0  0  0
    5.2150   -0.2625    0.0000 C   0  0  0  0  0  0  0  0  0  0  0  0
    4.5006   -0.6750    0.0000 C   0  0  0  0  0  0  0  0  0  0  0  0
    3.7861   -0.2625    0.0000 C   0  0  0  0  0  0  0  0  0  0  0  0
  2  3  1  0  0  0  0
  3  4  1  0  0  0  0
  4  5  1  0  0  0  0
  5  6  1  0  0  0  0
  6  7  1  0  0  0  0
  7  8  2  0  0  0  0
  8  9  1  0  0  0  0
  9 10  2  0  0  0  0
 10 11  1  0  0  0  0
 11 12  2  0  0  0  0
  3 12  1  0  0  0  0
  7 12  1  0  0  0  0
M  END
>  <Catalog ID>
Z367678660

>  <PlateID>
1198308-R-SPFL-12

>  <Well>
C11

>  <MW (desalted)>
149.190

>  <ClogP>
0.958

>  <HBD>
1

>  <TPSA>
35.250

>  <RotBonds>
0

$$$$

            

 13 13  0  0  0  0            999 V2000
    0.0000    0.0000    0.0000 Cl  0  0  0  0  0  0  0  0  0  0  0  0
    3.0716   -1.4438    0.0000 N   0  0  0  0  0  0  0  0  0  0  0  0
    3.0716   -0.6188    0.0000 C   0  0  0  0  0  0  0  0  0  0  0  0
    2.3571   -0.2062    0.0000 C   0  0  0  0  0  0  0  0  0  0  0  0
    2.3571    0.6188    0.0000 C   0  0  0  0  0  0  0  0  0  0  0  0
    3.0716    1.0313    0.0000 S   0  0  0  0  0  0  0  0  0  0  0  0
    3.7861    0.6188    0.0000 C   0  0  0  0  0  0  0  0  0  0  0  0
    4.5006    1.0313    0.0000 C   0  0  0  0  0  0  0  0  0  0  0  0
    5.2150    0.6187    0.0000 C   0  0  0  0  0  0  0  0  0  0  0  0
    5.2150   -0.2063    0.0000 C   0  0  0  0  0  0  0  0  0  0  0  0
    5.9295   -0.6188    0.0000 F   0  0  0  0  0  0  0  0  0  0  0  0
    4.5006   -0.6187    0.0000 C   0  0  0  0  0  0  0  0  0  0  0  0
    3.7861   -0.2062    0.0000 C   0  0  0  0  0  0  0  0  0  0  0  0
  2  3  1  0  0  0  0
  3  4  1  0  0  0  0
  4  5  1  0  0  0  0
  5  6  1  0  0  0  0
  6  7  1  0  0  0  0
  7  8  2  0  0  0  0
  8  9  1  0  0  0  0
  9 10  2  0  0  0  0
 10 11  1  0  0  0  0
 10 12  1  0  0  0  0
 12 13  2  0  0  0  0
  3 13  1  0  0  0  0
  7 13  1  0  0  0  0
M  END
>  <Catalog ID>
Z118507072

>  <PlateID>
1198308-R-SPFL-12

>  <Well>
D02

>  <MW (desalted)>
183.246

>  <ClogP>
1.797

>  <HBD>
1

>  <TPSA>
26.020

>  <RotBonds>
0

$$$$

            

 16 16  0  0  0  0            999 V2000
    0.0000    0.0000    0.0000 I   0  0  0  0  0  0  0  0  0  0  0  0
    2.3571   -1.8407    0.0000 C   0  0  0  0  0  0  0  0  0  0  0  0
    3.1641   -1.6692    0.0000 C   0  0  0  0  0  0  0  0  0  0  0  0
    3.7161   -2.2823    0.0000 C   0  0  0  0  0  0  0  0  0  0  0  0
    3.4191   -0.8846    0.0000 C   0  0  0  0  0  0  0  0  0  0  0  0
    4.2260   -0.7131    0.0000 N   0  0  0  0  0  0  0  0  0  0  0  0
    4.4810    0.0716    0.0000 C   0  0  0  0  0  0  0  0  0  0  0  0
    3.9960    0.7390    0.0000 N   0  0  0  0  0  0  0  0  0  0  0  0
    4.4810    1.4064    0.0000 N   0  0  0  0  0  0  0  0  0  0  0  0
    5.2656    1.1515    0.0000 C   0  0  0  0  0  0  0  0  0  0  0  0
    5.9106    1.6659    0.0000 C   0  0  0  0  0  0  0  0  0  0  0  0
    6.7149    1.4823    0.0000 C   0  0  0  0  0  0  0  0  0  0  0  0
    7.0729    0.7390    0.0000 C   0  0  0  0  0  0  0  0  0  0  0  0
    6.7149   -0.0043    0.0000 C   0  0  0  0  0  0  0  0  0  0  0  0
    5.9106   -0.1879    0.0000 C   0  0  0  0  0  0  0  0  0  0  0  0
    5.2656    0.3265    0.0000 N   0  0  0  0  0  0  0  0  0  0  0  0
  2  3  1  0  0  0  0
  3  4  1  0  0  0  0
  3  5  1  0  0  0  0
  5  6  1  0  0  0  0
  6  7  1  0  0  0  0
  7  8  2  0  0  0  0
  8  9  1  0  0  0  0
  9 10  2  0  0  0  0
 10 11  1  0  0  0  0
 11 12  1  0  0  0  0
 12 13  1  0  0  0  0
 13 14  1  0  0  0  0
 14 15  1  0  0  0  0
 15 16  1  0  0  0  0
  7 16  1  0  0  0  0
 10 16  1  0  0  0  0
M  END
>  <Catalog ID>
Z104520990

>  <PlateID>
1198308-R-SPFL-12

>  <Well>
D03

>  <MW (desalted)>
208.303

>  <ClogP>
2.663

>  <HBD>
1

>  <TPSA>
42.740

>  <RotBonds>
3

$$$$

            

 11 12  0  0  0  0            999 V2000
    2.9195    1.8414    0.0000 N   0  0  0  0  0  0  0  0  0  0  0  0
    2.5070    1.1270    0.0000 C   0  0  0  0  0  0  0  0  0  0  0  0
    2.9195    0.4125    0.0000 C   0  0  0  0  0  0  0  0  0  0  0  0
    2.5070   -0.3020    0.0000 C   0  0  0  0  0  0  0  0  0  0  0  0
    1.6820   -0.3020    0.0000 O   0  0  0  0  0  0  0  0  0  0  0  0
    1.2695    0.4125    0.0000 C   0  0  0  0  0  0  0  0  0  0  0  0
    0.7846   -0.2549    0.0000 C   0  0  0  0  0  0  0  0  0  0  0  0
    0.0000   -0.0000    0.0000 C   0  0  0  0  0  0  0  0  0  0  0  0
   -0.0000    0.8250    0.0000 C   0  0  0  0  0  0  0  0  0  0  0  0
    0.7846    1.0799    0.0000 C   0  0  0  0  0  0  0  0  0  0  0  0
    1.6820    1.1270    0.0000 C   0  0  0  0  0  0  0  0  0  0  0  0
  1  2  1  0  0  0  0
  2  3  1  0  0  0  0
  3  4  1  0  0  0  0
  4  5  1  0  0  0  0
  5  6  1  0  0  0  0
  6  7  1  0  0  0  0
  7  8  1  0  0  0  0
  8  9  1  0  0  0  0
  9 10  1  0  0  0  0
  6 10  1  0  0  0  0
  6 11  1  0  0  0  0
  2 11  1  0  0  0  0
M  END
>  <Catalog ID>
Z1192342332

>  <PlateID>
1198308-R-SPFL-12

>  <Well>
D04

>  <MW (desalted)>
155.237

>  <ClogP>
0.400

>  <HBD>
1

>  <TPSA>
35.250

>  <RotBonds>
0

$$$$

            

 14 15  0  0  0  0            999 V2000
    2.1434   -0.4125    0.0000 C   0  0  0  0  0  0  0  0  0  0  0  0
    2.1434   -1.2375    0.0000 C   0  0  0  0  0  0  0  0  0  0  0  0
    2.8579   -1.6500    0.0000 C   0  0  0  0  0  0  0  0  0  0  0  0
    2.8579   -2.4750    0.0000 C   0  0  0  0  0  0  0  0  0  0  0  0
    2.1434   -2.8875    0.0000 C   0  0  0  0  0  0  0  0  0  0  0  0
    1.4289   -2.4750    0.0000 C   0  0  0  0  0  0  0  0  0  0  0  0
    1.4289   -1.6500    0.0000 N   0  0  0  0  0  0  0  0  0  0  0  0
    0.7145   -1.2375    0.0000 C   0  0  0  0  0  0  0  0  0  0  0  0
    0.7145   -0.4125    0.0000 C   0  0  0  0  0  0  0  0  0  0  0  0
    0.0000    0.0000    0.0000 C   0  0  0  0  0  0  0  0  0  0  0  0
    0.0000    0.8250    0.0000 C   0  0  0  0  0  0  0  0  0  0  0  0
    0.7145    1.2375    0.0000 N   0  0  0  0  0  0  0  0  0  0  0  0
    1.4289    0.8250    0.0000 C   0  0  0  0  0  0  0  0  0  0  0  0
    1.4289    0.0000    0.0000 C   0  0  0  0  0  0  0  0  0  0  0  0
  1  2  1  0  0  0  0
  2  3  1  0  0  0  0
  3  4  1  0  0  0  0
  4  5  1  0  0  0  0
  5  6  1  0  0  0  0
  6  7  1  0  0  0  0
  2  7  1  0  0  0  0
  7  8  1  0  0  0  0
  8  9  1  0  0  0  0
  9 10  2  0  0  0  0
 10 11  1  0  0  0  0
 11 12  2  0  0  0  0
 12 13  1  0  0  0  0
 13 14  2  0  0  0  0
  9 14  1  0  0  0  0
M  END
>  <Catalog ID>
Z138861442

>  <PlateID>
1198308-R-SPFL-12

>  <Well>
D05

>  <MW (desalted)>
190.285

>  <ClogP>
2.191

>  <HBD>
0

>  <TPSA>
16.130

>  <RotBonds>
2

$$$$

            

 12 10  0  0  0  0            999 V2000
    0.0000    0.0000    0.0000 Cl  0  0  0  0  0  0  0  0  0  0  0  0
    2.0036    0.0000    0.0000 Cl  0  0  0  0  0  0  0  0  0  0  0  0
   -0.4287   -1.6500    0.0000 N   0  0  0  0  0  0  0  0  0  0  0  0
   -0.4287   -2.4750    0.0000 C   0  0  0  0  0  0  0  0  0  0  0  0
    0.2858   -2.8875    0.0000 C   0  0  0  0  0  0  0  0  0  0  0  0
    0.2858   -3.7125    0.0000 C   0  0  0  0  0  0  0  0  0  0  0  0
    1.0003   -4.1250    0.0000 N   0  0  0  0  0  0  0  0  0  0  0  0
    1.0003   -4.9500    0.0000 C   0  0  0  0  0  0  0  0  0  0  0  0
    0.2858   -5.3625    0.0000 C   0  0  0  0  0  0  0  0  0  0  0  0
   -0.4287   -4.9500    0.0000 C   0  0  0  0  0  0  0  0  0  0  0  0
   -0.4287   -4.1250    0.0000 C   0  0  0  0  0  0  0  0  0  0  0  0
   -1.1432   -3.7125    0.0000 F   0  0  0  0  0  0  0  0  0  0  0  0
  3  4  1  0  0  0  0
  4  5  1  0  0  0  0
  5  6  1  0  0  0  0
  6  7  2  0  0  0  0
  7  8  1  0  0  0  0
  8  9  2  0  0  0  0
  9 10  1  0  0  0  0
 10 11  2  0  0  0  0
  6 11  1  0  0  0  0
 11 12  1  0  0  0  0
M  END
>  <Catalog ID>
Z2472857420

>  <PlateID>
1198308-R-SPFL-12

>  <Well>
D06

>  <MW (desalted)>
140.158

>  <ClogP>
0.163

>  <HBD>
1

>  <TPSA>
38.910

>  <RotBonds>
2

$$$$

            

 14 15  0  0  0  0            999 V2000
    2.0367   -0.4741    0.0000 C   0  0  0  0  0  0  0  0  0  0  0  0
    2.0367   -1.2991    0.0000 C   0  0  0  0  0  0  0  0  0  0  0  0
    2.7041   -1.7840    0.0000 N   0  0  0  0  0  0  0  0  0  0  0  0
    2.4492   -2.5687    0.0000 C   0  0  0  0  0  0  0  0  0  0  0  0
    2.9341   -3.2361    0.0000 C   0  0  0  0  0  0  0  0  0  0  0  0
    1.6242   -2.5687    0.0000 N   0  0  0  0  0  0  0  0  0  0  0  0
    1.1393   -3.2361    0.0000 C   0  0  0  0  0  0  0  0  0  0  0  0
    0.3188   -3.1499    0.0000 C   0  0  0  0  0  0  0  0  0  0  0  0
   -0.1661   -3.8173    0.0000 C   0  0  0  0  0  0  0  0  0  0  0  0
   -0.9866   -3.7311    0.0000 C   0  0  0  0  0  0  0  0  0  0  0  0
   -1.3222   -2.9774    0.0000 C   0  0  0  0  0  0  0  0  0  0  0  0
   -0.8372   -2.3099    0.0000 N   0  0  0  0  0  0  0  0  0  0  0  0
   -0.0168   -2.3962    0.0000 C   0  0  0  0  0  0  0  0  0  0  0  0
    1.3693   -1.7840    0.0000 N   0  0  0  0  0  0  0  0  0  0  0  0
  1  2  1  0  0  0  0
  2  3  1  0  0  0  0
  3  4  2  0  0  0  0
  4  5  1  0  0  0  0
  4  6  1  0  0  0  0
  6  7  1  0  0  0  0
  7  8  1  0  0  0  0
  8  9  1  0  0  0  0
  9 10  1  0  0  0  0
 10 11  1  0  0  0  0
 11 12  1  0  0  0  0
 12 13  1  0  0  0  0
  8 13  1  0  0  0  0
  6 14  1  0  0  0  0
  2 14  2  0  0  0  0
M  END
>  <Catalog ID>
Z839366912

>  <PlateID>
1198308-R-SPFL-12

>  <Well>
D07

>  <MW (desalted)>
194.277

>  <ClogP>
0.026

>  <HBD>
1

>  <TPSA>
42.740

>  <RotBonds>
2

$$$$

            

 11 12  0  0  0  0            999 V2000
   -0.5837   -1.4124    0.0000 O   0  0  0  0  0  0  0  0  0  0  0  0
   -0.1712   -0.6979    0.0000 C   0  0  0  0  0  0  0  0  0  0  0  0
    0.6538   -0.6979    0.0000 C   0  0  0  0  0  0  0  0  0  0  0  0
    1.1387   -0.0305    0.0000 N   0  0  0  0  0  0  0  0  0  0  0  0
    1.9233   -0.2854    0.0000 C   0  0  0  0  0  0  0  0  0  0  0  0
    2.6378    0.1271    0.0000 C   0  0  0  0  0  0  0  0  0  0  0  0
    3.3523   -0.2854    0.0000 C   0  0  0  0  0  0  0  0  0  0  0  0
    3.3523   -1.1104    0.0000 C   0  0  0  0  0  0  0  0  0  0  0  0
    2.6378   -1.5229    0.0000 C   0  0  0  0  0  0  0  0  0  0  0  0
    1.9233   -1.1104    0.0000 C   0  0  0  0  0  0  0  0  0  0  0  0
    1.1387   -1.3654    0.0000 S   0  0  0  0  0  0  0  0  0  0  0  0
  1  2  1  0  0  0  0
  2  3  1  0  0  0  0
  3  4  2  0  0  0  0
  4  5  1  0  0  0  0
  5  6  2  0  0  0  0
  6  7  1  0  0  0  0
  7  8  2  0  0  0  0
  8  9  1  0  0  0  0
  9 10  2  0  0  0  0
  5 10  1  0  0  0  0
 10 11  1  0  0  0  0
  3 11  1  0  0  0  0
M  END
>  <Catalog ID>
Z56899191

>  <PlateID>
1198308-R-SPFL-12

>  <Well>
D08

>  <MW (desalted)>
165.212

>  <ClogP>
1.042

>  <HBD>
1

>  <TPSA>
33.120

>  <RotBonds>
1

$$$$

            

 12 11  0  0  0  0            999 V2000
    0.0000    0.0000    0.0000 Cl  0  0  0  0  0  0  0  0  0  0  0  0
    2.6002    2.4000    0.0000 C   0  0  0  0  0  0  0  0  0  0  0  0
    2.6002    1.5750    0.0000 C   0  0  0  0  0  0  0  0  0  0  0  0
    3.3147    1.1625    0.0000 C   0  0  0  0  0  0  0  0  0  0  0  0
    3.3147    0.3375    0.0000 C   0  0  0  0  0  0  0  0  0  0  0  0
    2.6002   -0.0750    0.0000 C   0  0  0  0  0  0  0  0  0  0  0  0
    2.6002   -0.9000    0.0000 O   0  0  0  0  0  0  0  0  0  0  0  0
    3.3147   -1.3125    0.0000 C   0  0  0  0  0  0  0  0  0  0  0  0
    3.3147   -2.1375    0.0000 C   0  0  0  0  0  0  0  0  0  0  0  0
    4.0291   -2.5500    0.0000 N   0  0  0  0  0  0  0  0  0  0  0  0
    1.8857    0.3375    0.0000 C   0  0  0  0  0  0  0  0  0  0  0  0
    1.8857    1.1625    0.0000 C   0  0  0  0  0  0  0  0  0  0  0  0
  2  3  1  0  0  0  0
  3  4  2  0  0  0  0
  4  5  1  0  0  0  0
  5  6  2  0  0  0  0
  6  7  1  0  0  0  0
  7  8  1  0  0  0  0
  8  9  1  0  0  0  0
  9 10  1  0  0  0  0
  6 11  1  0  0  0  0
 11 12  2  0  0  0  0
  3 12  1  0  0  0  0
M  END
>  <Catalog ID>
Z235340115

>  <PlateID>
1198308-R-SPFL-12

>  <Well>
D09

>  <MW (desalted)>
151.206

>  <ClogP>
1.761

>  <HBD>
1

>  <TPSA>
35.250

>  <RotBonds>
3

$$$$

            

 12 13  0  0  0  0            999 V2000
    0.7145   -0.4125    0.0000 C   0  0  0  0  0  0  0  0  0  0  0  0
    0.7145   -1.2375    0.0000 N   0  0  0  0  0  0  0  0  0  0  0  0
    1.3819   -1.7224    0.0000 C   0  0  0  0  0  0  0  0  0  0  0  0
    1.1270   -2.5070    0.0000 C   0  0  0  0  0  0  0  0  0  0  0  0
    0.3020   -2.5070    0.0000 C   0  0  0  0  0  0  0  0  0  0  0  0
    0.0470   -1.7224    0.0000 N   0  0  0  0  0  0  0  0  0  0  0  0
    1.6119   -3.1745    0.0000 C   0  0  0  0  0  0  0  0  0  0  0  0
    2.4324   -3.0882    0.0000 C   0  0  0  0  0  0  0  0  0  0  0  0
    2.9173   -3.7557    0.0000 C   0  0  0  0  0  0  0  0  0  0  0  0
    2.5817   -4.5094    0.0000 C   0  0  0  0  0  0  0  0  0  0  0  0
    1.7613   -4.5956    0.0000 N   0  0  0  0  0  0  0  0  0  0  0  0
    1.2763   -3.9282    0.0000 C   0  0  0  0  0  0  0  0  0  0  0  0
  1  2  1  0  0  0  0
  2  3  1  0  0  0  0
  3  4  2  0  0  0  0
  4  5  1  0  0  0  0
  5  6  2  0  0  0  0
  2  6  1  0  0  0  0
  4  7  1  0  0  0  0
  7  8  1  0  0  0  0
  8  9  1  0  0  0  0
  9 10  1  0  0  0  0
 10 11  1  0  0  0  0
 11 12  1  0  0  0  0
  7 12  1  0  0  0  0
M  END
>  <Catalog ID>
Z988983998

>  <PlateID>
1198308-R-SPFL-12

>  <Well>
D10

>  <MW (desalted)>
165.236

>  <ClogP>
0.378

>  <HBD>
1

>  <TPSA>
29.850

>  <RotBonds>
1

$$$$

            

 15 15  0  0  0  0            999 V2000
    0.0000    0.0000    0.0000 Cl  0  0  0  0  0  0  0  0  0  0  0  0
    2.3571   -2.0038    0.0000 N   0  0  0  0  0  0  0  0  0  0  0  0
    3.1641   -1.8322    0.0000 C   0  0  0  0  0  0  0  0  0  0  0  0
    3.4191   -1.0476    0.0000 C   0  0  0  0  0  0  0  0  0  0  0  0
    4.2260   -0.8761    0.0000 C   0  0  0  0  0  0  0  0  0  0  0  0
    4.4810   -0.0915    0.0000 C   0  0  0  0  0  0  0  0  0  0  0  0
    3.9960    0.5760    0.0000 N   0  0  0  0  0  0  0  0  0  0  0  0
    4.4810    1.2434    0.0000 N   0  0  0  0  0  0  0  0  0  0  0  0
    5.2656    0.9885    0.0000 C   0  0  0  0  0  0  0  0  0  0  0  0
    5.9106    1.5029    0.0000 C   0  0  0  0  0  0  0  0  0  0  0  0
    6.7149    1.3193    0.0000 C   0  0  0  0  0  0  0  0  0  0  0  0
    7.0729    0.5760    0.0000 C   0  0  0  0  0  0  0  0  0  0  0  0
    6.7149   -0.1673    0.0000 C   0  0  0  0  0  0  0  0  0  0  0  0
    5.9106   -0.3509    0.0000 C   0  0  0  0  0  0  0  0  0  0  0  0
    5.2656    0.1635    0.0000 N   0  0  0  0  0  0  0  0  0  0  0  0
  2  3  1  0  0  0  0
  3  4  1  0  0  0  0
  4  5  1  0  0  0  0
  5  6  1  0  0  0  0
  6  7  2  0  0  0  0
  7  8  1  0  0  0  0
  8  9  2  0  0  0  0
  9 10  1  0  0  0  0
 10 11  1  0  0  0  0
 11 12  1  0  0  0  0
 12 13  1  0  0  0  0
 13 14  1  0  0  0  0
 14 15  1  0  0  0  0
  6 15  1  0  0  0  0
  9 15  1  0  0  0  0
M  END
>  <Catalog ID>
Z2242062222

>  <PlateID>
1198308-R-SPFL-12

>  <Well>
D11

>  <MW (desalted)>
194.277

>  <ClogP>
-0.239

>  <HBD>
1

>  <TPSA>
56.730

>  <RotBonds>
3

$$$$

            

 11 11  0  0  0  0            999 V2000
    0.0000    0.0000    0.0000 Cl  0  0  0  0  0  0  0  0  0  0  0  0
    2.3571    0.0000    0.0000 N   0  0  0  0  0  0  0  0  0  0  0  0
    3.1821    0.0000    0.0000 C   0  0  0  0  0  0  0  0  0  0  0  0
    3.6671    0.6674    0.0000 C   0  0  0  0  0  0  0  0  0  0  0  0
    4.4517    0.4125    0.0000 C   0  0  0  0  0  0  0  0  0  0  0  0
    5.1662    0.8250    0.0000 C   0  0  0  0  0  0  0  0  0  0  0  0
    5.8806    0.4125    0.0000 C   0  0  0  0  0  0  0  0  0  0  0  0
    5.8806   -0.4125    0.0000 C   0  0  0  0  0  0  0  0  0  0  0  0
    5.1662   -0.8250    0.0000 C   0  0  0  0  0  0  0  0  0  0  0  0
    4.4517   -0.4125    0.0000 C   0  0  0  0  0  0  0  0  0  0  0  0
    3.6671   -0.6674    0.0000 C   0  0  0  0  0  0  0  0  0  0  0  0
  2  3  1  0  0  0  0
  3  4  1  0  0  0  0
  4  5  1  0  0  0  0
  5  6  2  0  0  0  0
  6  7  1  0  0  0  0
  7  8  2  0  0  0  0
  8  9  1  0  0  0  0
  9 10  2  0  0  0  0
  5 10  1  0  0  0  0
 10 11  1  0  0  0  0
  3 11  1  0  0  0  0
M  END
>  <Catalog ID>
Z1741971562

>  <PlateID>
1198308-R-SPFL-12

>  <Well>
E02

>  <MW (desalted)>
133.190

>  <ClogP>
1.318

>  <HBD>
1

>  <TPSA>
26.020

>  <RotBonds>
0

$$$$

            

 15 16  0  0  0  0            999 V2000
    1.4289   -1.6500    0.0000 C   0  0  0  0  0  0  0  0  0  0  0  0
    1.4289   -2.4750    0.0000 C   0  0  0  0  0  0  0  0  0  0  0  0
    2.0964   -2.9599    0.0000 N   0  0  0  0  0  0  0  0  0  0  0  0
    1.8414   -3.7445    0.0000 O   0  0  0  0  0  0  0  0  0  0  0  0
    1.0164   -3.7445    0.0000 C   0  0  0  0  0  0  0  0  0  0  0  0
    0.5315   -4.4120    0.0000 C   0  0  0  0  0  0  0  0  0  0  0  0
    0.7615   -2.9599    0.0000 C   0  0  0  0  0  0  0  0  0  0  0  0
   -0.0231   -2.7050    0.0000 C   0  0  0  0  0  0  0  0  0  0  0  0
   -0.6362   -3.2570    0.0000 N   0  0  0  0  0  0  0  0  0  0  0  0
   -1.4208   -3.0021    0.0000 C   0  0  0  0  0  0  0  0  0  0  0  0
   -2.0339   -3.5541    0.0000 C   0  0  0  0  0  0  0  0  0  0  0  0
   -2.8186   -3.2992    0.0000 C   0  0  0  0  0  0  0  0  0  0  0  0
   -2.9901   -2.4922    0.0000 C   0  0  0  0  0  0  0  0  0  0  0  0
   -2.3770   -1.9402    0.0000 C   0  0  0  0  0  0  0  0  0  0  0  0
   -1.5924   -2.1951    0.0000 C   0  0  0  0  0  0  0  0  0  0  0  0
  1  2  1  0  0  0  0
  2  3  2  0  0  0  0
  3  4  1  0  0  0  0
  4  5  1  0  0  0  0
  5  6  1  0  0  0  0
  5  7  2  0  0  0  0
  2  7  1  0  0  0  0
  7  8  1  0  0  0  0
  8  9  1  0  0  0  0
  9 10  1  0  0  0  0
 10 11  2  0  0  0  0
 11 12  1  0  0  0  0
 12 13  2  0  0  0  0
 13 14  1  0  0  0  0
 14 15  2  0  0  0  0
 10 15  1  0  0  0  0
M  END
>  <Catalog ID>
Z56928941

>  <PlateID>
1198308-R-SPFL-12

>  <Well>
E03

>  <MW (desalted)>
202.252

>  <ClogP>
1.506

>  <HBD>
1

>  <TPSA>
38.060

>  <RotBonds>
3

$$$$

            

 13 14  0  0  0  0            999 V2000
   -0.8212    6.0027    0.0000 N   0  0  0  0  0  0  0  0  0  0  0  0
   -0.1067    5.5902    0.0000 C   0  0  0  0  0  0  0  0  0  0  0  0
    0.6078    6.0027    0.0000 C   0  0  0  0  0  0  0  0  0  0  0  0
    1.3222    5.5902    0.0000 C   0  0  0  0  0  0  0  0  0  0  0  0
    1.3222    4.7652    0.0000 N   0  0  0  0  0  0  0  0  0  0  0  0
    2.0367    4.3527    0.0000 C   0  0  0  0  0  0  0  0  0  0  0  0
    2.0367    3.5277    0.0000 C   0  0  0  0  0  0  0  0  0  0  0  0
    2.7041    3.0428    0.0000 C   0  0  0  0  0  0  0  0  0  0  0  0
    2.4492    2.2581    0.0000 C   0  0  0  0  0  0  0  0  0  0  0  0
    1.6242    2.2581    0.0000 S   0  0  0  0  0  0  0  0  0  0  0  0
    1.3693    3.0428    0.0000 C   0  0  0  0  0  0  0  0  0  0  0  0
    0.6078    4.3527    0.0000 C   0  0  0  0  0  0  0  0  0  0  0  0
   -0.1067    4.7652    0.0000 C   0  0  0  0  0  0  0  0  0  0  0  0
  1  2  1  0  0  0  0
  2  3  1  0  0  0  0
  3  4  1  0  0  0  0
  4  5  1  0  0  0  0
  5  6  1  0  0  0  0
  6  7  1  0  0  0  0
  7  8  1  0  0  0  0
  8  9  2  0  0  0  0
  9 10  1  0  0  0  0
 10 11  1  0  0  0  0
  7 11  2  0  0  0  0
  5 12  1  0  0  0  0
 12 13  1  0  0  0  0
  2 13  1  0  0  0  0
M  END
>  <Catalog ID>
Z362837064

>  <PlateID>
1198308-R-SPFL-12

>  <Well>
E04

>  <MW (desalted)>
196.312

>  <ClogP>
0.828

>  <HBD>
1

>  <TPSA>
29.260

>  <RotBonds>
2

$$$$

            

 14 15  0  0  0  0            999 V2000
   -0.1712   -0.6979    0.0000 C   0  0  0  0  0  0  0  0  0  0  0  0
    0.6538   -0.6979    0.0000 C   0  0  0  0  0  0  0  0  0  0  0  0
    1.1387   -0.0305    0.0000 C   0  0  0  0  0  0  0  0  0  0  0  0
    1.9233   -0.2854    0.0000 C   0  0  0  0  0  0  0  0  0  0  0  0
    2.6378    0.1271    0.0000 N   0  0  0  0  0  0  0  0  0  0  0  0
    3.3523   -0.2854    0.0000 C   0  0  0  0  0  0  0  0  0  0  0  0
    3.3523   -1.1104    0.0000 C   0  0  0  0  0  0  0  0  0  0  0  0
    2.6378   -1.5229    0.0000 C   0  0  0  0  0  0  0  0  0  0  0  0
    1.9233   -1.1104    0.0000 N   0  0  0  0  0  0  0  0  0  0  0  0
    1.1387   -1.3654    0.0000 N   0  0  0  0  0  0  0  0  0  0  0  0
    2.6378   -2.3479    0.0000 C   0  0  0  0  0  0  0  0  0  0  0  0
    2.6378   -3.1729    0.0000 F   0  0  0  0  0  0  0  0  0  0  0  0
    1.8128   -2.3479    0.0000 F   0  0  0  0  0  0  0  0  0  0  0  0
    3.4628   -2.3479    0.0000 F   0  0  0  0  0  0  0  0  0  0  0  0
  1  2  1  0  0  0  0
  2  3  1  0  0  0  0
  3  4  2  0  0  0  0
  4  5  1  0  0  0  0
  5  6  1  0  0  0  0
  6  7  1  0  0  0  0
  7  8  1  0  0  0  0
  8  9  1  0  0  0  0
  4  9  1  0  0  0  0
  9 10  1  0  0  0  0
  2 10  2  0  0  0  0
  8 11  1  0  0  0  0
 11 12  1  0  0  0  0
 11 13  1  0  0  0  0
 11 14  1  0  0  0  0
M  END
>  <Catalog ID>
Z235344901

>  <PlateID>
1198308-R-SPFL-12

>  <Well>
E05

>  <MW (desalted)>
205.180

>  <ClogP>
0.740

>  <HBD>
1

>  <TPSA>
29.850

>  <RotBonds>
1

$$$$

            

 14 13  0  0  0  0            999 V2000
    0.0000    0.0000    0.0000 Cl  0  0  0  0  0  0  0  0  0  0  0  0
    2.0036    0.0000    0.0000 Cl  0  0  0  0  0  0  0  0  0  0  0  0
   -2.2218   -3.7152    0.0000 C   0  0  0  0  0  0  0  0  0  0  0  0
   -1.3968   -3.7152    0.0000 C   0  0  0  0  0  0  0  0  0  0  0  0
   -0.9119   -3.0477    0.0000 C   0  0  0  0  0  0  0  0  0  0  0  0
   -0.1273   -3.3027    0.0000 N   0  0  0  0  0  0  0  0  0  0  0  0
    0.6574   -3.0477    0.0000 C   0  0  0  0  0  0  0  0  0  0  0  0
    0.9123   -2.2631    0.0000 C   0  0  0  0  0  0  0  0  0  0  0  0
    0.3603   -1.6500    0.0000 N   0  0  0  0  0  0  0  0  0  0  0  0
    1.1423   -3.7152    0.0000 C   0  0  0  0  0  0  0  0  0  0  0  0
    1.9673   -3.7152    0.0000 C   0  0  0  0  0  0  0  0  0  0  0  0
    0.6574   -4.3826    0.0000 N   0  0  0  0  0  0  0  0  0  0  0  0
   -0.1273   -4.1277    0.0000 C   0  0  0  0  0  0  0  0  0  0  0  0
   -0.9119   -4.3826    0.0000 S   0  0  0  0  0  0  0  0  0  0  0  0
  3  4  1  0  0  0  0
  4  5  2  0  0  0  0
  5  6  1  0  0  0  0
  6  7  1  0  0  0  0
  7  8  1  0  0  0  0
  8  9  1  0  0  0  0
  7 10  2  0  0  0  0
 10 11  1  0  0  0  0
 10 12  1  0  0  0  0
 12 13  2  0  0  0  0
  6 13  1  0  0  0  0
 13 14  1  0  0  0  0
  4 14  1  0  0  0  0
M  END
>  <Catalog ID>
Z2217033084

>  <PlateID>
1198308-R-SPFL-12

>  <Well>
E06

>  <MW (desalted)>
181.258

>  <ClogP>
1.067

>  <HBD>
1

>  <TPSA>
43.320

>  <RotBonds>
1

$$$$

            

 14 15  0  0  0  0            999 V2000
    1.3222    0.7634    0.0000 N   0  0  0  0  0  0  0  0  0  0  0  0
    1.3222   -0.0616    0.0000 C   0  0  0  0  0  0  0  0  0  0  0  0
    2.0367   -0.4741    0.0000 C   0  0  0  0  0  0  0  0  0  0  0  0
    2.0367   -1.2991    0.0000 N   0  0  0  0  0  0  0  0  0  0  0  0
    2.7041   -1.7840    0.0000 C   0  0  0  0  0  0  0  0  0  0  0  0
    2.4492   -2.5687    0.0000 C   0  0  0  0  0  0  0  0  0  0  0  0
    1.6242   -2.5687    0.0000 C   0  0  0  0  0  0  0  0  0  0  0  0
    1.3693   -1.7840    0.0000 C   0  0  0  0  0  0  0  0  0  0  0  0
    2.7512   -0.0616    0.0000 C   0  0  0  0  0  0  0  0  0  0  0  0
    2.7512    0.7634    0.0000 C   0  0  0  0  0  0  0  0  0  0  0  0
    3.4656    1.1759    0.0000 C   0  0  0  0  0  0  0  0  0  0  0  0
    4.1801    0.7634    0.0000 C   0  0  0  0  0  0  0  0  0  0  0  0
    4.1801   -0.0616    0.0000 C   0  0  0  0  0  0  0  0  0  0  0  0
    3.4656   -0.4741    0.0000 C   0  0  0  0  0  0  0  0  0  0  0  0
  1  2  1  0  0  0  0
  2  3  1  0  0  0  0
  3  4  1  0  0  0  0
  4  5  1  0  0  0  0
  5  6  1  0  0  0  0
  6  7  1  0  0  0  0
  7  8  1  0  0  0  0
  4  8  1  0  0  0  0
  3  9  1  0  0  0  0
  9 10  2  0  0  0  0
 10 11  1  0  0  0  0
 11 12  2  0  0  0  0
 12 13  1  0  0  0  0
 13 14  2  0  0  0  0
  9 14  1  0  0  0  0
M  END
>  <Catalog ID>
Z56347585

>  <PlateID>
1198308-R-SPFL-12

>  <Well>
E07

>  <MW (desalted)>
190.285

>  <ClogP>
1.842

>  <HBD>
1

>  <TPSA>
29.260

>  <RotBonds>
3

$$$$

            

 14 15  0  0  0  0            999 V2000
    2.7512   -0.0616    0.0000 N   0  0  0  0  0  0  0  0  0  0  0  0
    2.0367   -0.4741    0.0000 C   0  0  0  0  0  0  0  0  0  0  0  0
    2.0367   -1.2991    0.0000 C   0  0  0  0  0  0  0  0  0  0  0  0
    2.7041   -1.7840    0.0000 C   0  0  0  0  0  0  0  0  0  0  0  0
    2.4492   -2.5687    0.0000 C   0  0  0  0  0  0  0  0  0  0  0  0
    1.6242   -2.5687    0.0000 C   0  0  0  0  0  0  0  0  0  0  0  0
    1.3693   -1.7840    0.0000 N   0  0  0  0  0  0  0  0  0  0  0  0
    0.5846   -1.5291    0.0000 C   0  0  0  0  0  0  0  0  0  0  0  0
    0.4131   -0.7221    0.0000 C   0  0  0  0  0  0  0  0  0  0  0  0
   -0.3715   -0.4672    0.0000 C   0  0  0  0  0  0  0  0  0  0  0  0
   -0.5430    0.3398    0.0000 C   0  0  0  0  0  0  0  0  0  0  0  0
    0.0701    0.8918    0.0000 C   0  0  0  0  0  0  0  0  0  0  0  0
    0.8547    0.6369    0.0000 C   0  0  0  0  0  0  0  0  0  0  0  0
    1.0262   -0.1701    0.0000 C   0  0  0  0  0  0  0  0  0  0  0  0
  1  2  1  0  0  0  0
  2  3  1  0  0  0  0
  3  4  1  0  0  0  0
  4  5  1  0  0  0  0
  5  6  1  0  0  0  0
  6  7  1  0  0  0  0
  3  7  1  0  0  0  0
  7  8  1  0  0  0  0
  8  9  1  0  0  0  0
  9 10  2  0  0  0  0
 10 11  1  0  0  0  0
 11 12  2  0  0  0  0
 12 13  1  0  0  0  0
 13 14  2  0  0  0  0
  9 14  1  0  0  0  0
M  END
>  <Catalog ID>
Z326202540

>  <PlateID>
1198308-R-SPFL-12

>  <Well>
E08

>  <MW (desalted)>
190.285

>  <ClogP>
2.052

>  <HBD>
1

>  <TPSA>
29.260

>  <RotBonds>
3

$$$$

            

 12 12  0  0  0  0            999 V2000
    0.5678    1.9393    0.0000 C   0  0  0  0  0  0  0  0  0  0  0  0
    0.5678    1.1143    0.0000 N   0  0  0  0  0  0  0  0  0  0  0  0
    1.2352    0.6294    0.0000 C   0  0  0  0  0  0  0  0  0  0  0  0
    0.9803   -0.1553    0.0000 C   0  0  0  0  0  0  0  0  0  0  0  0
    0.1553   -0.1553    0.0000 C   0  0  0  0  0  0  0  0  0  0  0  0
   -0.0997    0.6294    0.0000 N   0  0  0  0  0  0  0  0  0  0  0  0
    1.4652   -0.8227    0.0000 C   0  0  0  0  0  0  0  0  0  0  0  0
    1.1296   -1.5764    0.0000 N   0  0  0  0  0  0  0  0  0  0  0  0
    2.2857   -0.7365    0.0000 C   0  0  0  0  0  0  0  0  0  0  0  0
    3.1061   -0.6502    0.0000 F   0  0  0  0  0  0  0  0  0  0  0  0
    2.3719   -1.5569    0.0000 F   0  0  0  0  0  0  0  0  0  0  0  0
    2.1994    0.0840    0.0000 F   0  0  0  0  0  0  0  0  0  0  0  0
  1  2  1  0  0  0  0
  2  3  1  0  0  0  0
  3  4  2  0  0  0  0
  4  5  1  0  0  0  0
  5  6  2  0  0  0  0
  2  6  1  0  0  0  0
  4  7  1  0  0  0  0
  7  8  1  0  0  0  0
  7  9  1  0  0  0  0
  9 10  1  0  0  0  0
  9 11  1  0  0  0  0
  9 12  1  0  0  0  0
M  END
>  <Catalog ID>
Z362768860

>  <PlateID>
1198308-R-SPFL-12

>  <Well>
E09

>  <MW (desalted)>
179.143

>  <ClogP>
-0.018

>  <HBD>
1

>  <TPSA>
43.840

>  <RotBonds>
2

$$$$

            

 10 10  0  0  0  0            999 V2000
   -0.8612    2.7643    0.0000 C   0  0  0  0  0  0  0  0  0  0  0  0
   -0.1467    2.3518    0.0000 C   0  0  0  0  0  0  0  0  0  0  0  0
   -0.5592    1.6373    0.0000 C   0  0  0  0  0  0  0  0  0  0  0  0
    0.2658    3.0663    0.0000 O   0  0  0  0  0  0  0  0  0  0  0  0
    0.5678    1.9393    0.0000 C   0  0  0  0  0  0  0  0  0  0  0  0
    0.5678    1.1143    0.0000 C   0  0  0  0  0  0  0  0  0  0  0  0
    1.2352    0.6294    0.0000 C   0  0  0  0  0  0  0  0  0  0  0  0
    0.9803   -0.1553    0.0000 C   0  0  0  0  0  0  0  0  0  0  0  0
    0.1553   -0.1553    0.0000 O   0  0  0  0  0  0  0  0  0  0  0  0
   -0.0997    0.6294    0.0000 C   0  0  0  0  0  0  0  0  0  0  0  0
  1  2  1  0  0  0  0
  2  3  1  0  0  0  0
  2  4  1  0  0  0  0
  2  5  1  0  0  0  0
  5  6  1  0  0  0  0
  6  7  1  0  0  0  0
  7  8  2  0  0  0  0
  8  9  1  0  0  0  0
  9 10  1  0  0  0  0
  6 10  2  0  0  0  0
M  END
>  <Catalog ID>
Z1587295614

>  <PlateID>
1198308-R-SPFL-12

>  <Well>
E10

>  <MW (desalted)>
140.180

>  <ClogP>
1.217

>  <HBD>
1

>  <TPSA>
33.370

>  <RotBonds>
2

$$$$

            

 10 10  0  0  0  0            999 V2000
    0.8649    2.5120    0.0000 C   0  0  0  0  0  0  0  0  0  0  0  0
    1.1198    1.7274    0.0000 C   0  0  0  0  0  0  0  0  0  0  0  0
    0.5678    1.1143    0.0000 C   0  0  0  0  0  0  0  0  0  0  0  0
    0.0157    1.7274    0.0000 C   0  0  0  0  0  0  0  0  0  0  0  0
   -0.7912    1.5559    0.0000 C   0  0  0  0  0  0  0  0  0  0  0  0
    1.2352    0.6294    0.0000 C   0  0  0  0  0  0  0  0  0  0  0  0
    0.9803   -0.1553    0.0000 C   0  0  0  0  0  0  0  0  0  0  0  0
    0.1553   -0.1553    0.0000 N   0  0  0  0  0  0  0  0  0  0  0  0
   -0.0997    0.6294    0.0000 C   0  0  0  0  0  0  0  0  0  0  0  0
   -0.8843    0.8843    0.0000 O   0  0  0  0  0  0  0  0  0  0  0  0
  1  2  1  0  0  0  0
  2  3  1  0  0  0  0
  3  4  1  0  0  0  0
  4  5  1  0  0  0  0
  3  6  1  0  0  0  0
  6  7  1  0  0  0  0
  7  8  1  0  0  0  0
  8  9  1  0  0  0  0
  3  9  1  0  0  0  0
  9 10  2  0  0  0  0
M  END
>  <Catalog ID>
Z1198174966

>  <PlateID>
1198308-R-SPFL-12

>  <Well>
E11

>  <MW (desalted)>
141.211

>  <ClogP>
1.123

>  <HBD>
1

>  <TPSA>
29.100

>  <RotBonds>
2

$$$$

            

 12 12  0  0  0  0            999 V2000
    0.0000    3.3000    0.0000 C   0  0  0  0  0  0  0  0  0  0  0  0
    0.7145    2.8875    0.0000 N   0  0  0  0  0  0  0  0  0  0  0  0
    0.7145    2.0625    0.0000 S   0  0  0  0  0  0  0  0  0  0  0  0
   -0.1105    2.0625    0.0000 O   0  0  0  0  0  0  0  0  0  0  0  0
    1.5395    2.0625    0.0000 O   0  0  0  0  0  0  0  0  0  0  0  0
    0.7145    1.2375    0.0000 C   0  0  0  0  0  0  0  0  0  0  0  0
    1.4289    0.8250    0.0000 C   0  0  0  0  0  0  0  0  0  0  0  0
    1.4289   -0.0000    0.0000 C   0  0  0  0  0  0  0  0  0  0  0  0
    0.7145   -0.4125    0.0000 C   0  0  0  0  0  0  0  0  0  0  0  0
    0.7145   -1.2375    0.0000 C   0  0  0  0  0  0  0  0  0  0  0  0
    0.0000    0.0000    0.0000 C   0  0  0  0  0  0  0  0  0  0  0  0
    0.0000    0.8250    0.0000 C   0  0  0  0  0  0  0  0  0  0  0  0
  1  2  1  0  0  0  0
  2  3  1  0  0  0  0
  3  4  2  0  0  0  0
  3  5  2  0  0  0  0
  3  6  1  0  0  0  0
  6  7  2  0  0  0  0
  7  8  1  0  0  0  0
  8  9  2  0  0  0  0
  9 10  1  0  0  0  0
  9 11  1  0  0  0  0
 11 12  2  0  0  0  0
  6 12  1  0  0  0  0
M  END
>  <Catalog ID>
Z45527660

>  <PlateID>
1198308-R-SPFL-12

>  <Well>
F02

>  <MW (desalted)>
185.243

>  <ClogP>
1.420

>  <HBD>
1

>  <TPSA>
46.170

>  <RotBonds>
1

$$$$

            

 11 12  0  0  0  0            999 V2000
    4.0668    3.1729    0.0000 N   0  0  0  0  0  0  0  0  0  0  0  0
    4.0668    2.3479    0.0000 C   0  0  0  0  0  0  0  0  0  0  0  0
    3.3523    1.9354    0.0000 C   0  0  0  0  0  0  0  0  0  0  0  0
    3.3523    1.1104    0.0000 C   0  0  0  0  0  0  0  0  0  0  0  0
    2.6378    0.6979    0.0000 C   0  0  0  0  0  0  0  0  0  0  0  0
    1.9233    1.1104    0.0000 C   0  0  0  0  0  0  0  0  0  0  0  0
    1.1387    0.8555    0.0000 O   0  0  0  0  0  0  0  0  0  0  0  0
    0.6538    1.5229    0.0000 C   0  0  0  0  0  0  0  0  0  0  0  0
    1.1387    2.1904    0.0000 O   0  0  0  0  0  0  0  0  0  0  0  0
    1.9233    1.9354    0.0000 C   0  0  0  0  0  0  0  0  0  0  0  0
    2.6378    2.3479    0.0000 C   0  0  0  0  0  0  0  0  0  0  0  0
  1  2  1  0  0  0  0
  2  3  1  0  0  0  0
  3  4  2  0  0  0  0
  4  5  1  0  0  0  0
  5  6  2  0  0  0  0
  6  7  1  0  0  0  0
  7  8  1  0  0  0  0
  8  9  1  0  0  0  0
  9 10  1  0  0  0  0
  6 10  1  0  0  0  0
 10 11  2  0  0  0  0
  3 11  1  0  0  0  0
M  END
>  <Catalog ID>
Z104472420

>  <PlateID>
1198308-R-SPFL-12

>  <Well>
F03

>  <MW (desalted)>
151.163

>  <ClogP>
1.059

>  <HBD>
1

>  <TPSA>
44.480

>  <RotBonds>
1

$$$$

            

 10 10  0  0  0  0            999 V2000
   -0.8612    3.5893    0.0000 C   0  0  0  0  0  0  0  0  0  0  0  0
   -0.1467    3.1768    0.0000 O   0  0  0  0  0  0  0  0  0  0  0  0
   -0.1467    2.3518    0.0000 C   0  0  0  0  0  0  0  0  0  0  0  0
    0.5678    1.9393    0.0000 C   0  0  0  0  0  0  0  0  0  0  0  0
    1.2822    2.3518    0.0000 N   0  0  0  0  0  0  0  0  0  0  0  0
    0.5678    1.1143    0.0000 C   0  0  0  0  0  0  0  0  0  0  0  0
    1.2352    0.6294    0.0000 C   0  0  0  0  0  0  0  0  0  0  0  0
    0.9803   -0.1553    0.0000 C   0  0  0  0  0  0  0  0  0  0  0  0
    0.1553   -0.1553    0.0000 C   0  0  0  0  0  0  0  0  0  0  0  0
   -0.0997    0.6294    0.0000 O   0  0  0  0  0  0  0  0  0  0  0  0
  1  2  1  0  0  0  0
  2  3  1  0  0  0  0
  3  4  1  0  0  0  0
  4  5  1  0  0  0  0
  4  6  1  0  0  0  0
  6  7  2  0  0  0  0
  7  8  1  0  0  0  0
  8  9  2  0  0  0  0
  9 10  1  0  0  0  0
  6 10  1  0  0  0  0
M  END
>  <Catalog ID>
Z271013116

>  <PlateID>
1198308-R-SPFL-12

>  <Well>
F04

>  <MW (desalted)>
141.168

>  <ClogP>
0.132

>  <HBD>
1

>  <TPSA>
48.390

>  <RotBonds>
3

$$$$

            

 12 12  0  0  0  0            999 V2000
    0.0000    2.4750    0.0000 C   0  0  0  0  0  0  0  0  0  0  0  0
    0.7145    2.0625    0.0000 O   0  0  0  0  0  0  0  0  0  0  0  0
    0.7145    1.2375    0.0000 C   0  0  0  0  0  0  0  0  0  0  0  0
    1.4289    0.8250    0.0000 C   0  0  0  0  0  0  0  0  0  0  0  0
    1.4289   -0.0000    0.0000 C   0  0  0  0  0  0  0  0  0  0  0  0
    0.7145   -0.4125    0.0000 C   0  0  0  0  0  0  0  0  0  0  0  0
    0.7145   -1.2375    0.0000 O   0  0  0  0  0  0  0  0  0  0  0  0
    1.4289   -1.6500    0.0000 C   0  0  0  0  0  0  0  0  0  0  0  0
    0.0000    0.0000    0.0000 C   0  0  0  0  0  0  0  0  0  0  0  0
   -0.7145   -0.4125    0.0000 C   0  0  0  0  0  0  0  0  0  0  0  0
   -1.4289    0.0000    0.0000 O   0  0  0  0  0  0  0  0  0  0  0  0
    0.0000    0.8250    0.0000 C   0  0  0  0  0  0  0  0  0  0  0  0
  1  2  1  0  0  0  0
  2  3  1  0  0  0  0
  3  4  2  0  0  0  0
  4  5  1  0  0  0  0
  5  6  2  0  0  0  0
  6  7  1  0  0  0  0
  7  8  1  0  0  0  0
  6  9  1  0  0  0  0
  9 10  1  0  0  0  0
 10 11  1  0  0  0  0
  9 12  2  0  0  0  0
  3 12  1  0  0  0  0
M  END
>  <Catalog ID>
Z104509944

>  <PlateID>
1198308-R-SPFL-12

>  <Well>
F05

>  <MW (desalted)>
168.190

>  <ClogP>
1.112

>  <HBD>
1

>  <TPSA>
38.690

>  <RotBonds>
3

$$$$

            

 12 12  0  0  0  0            999 V2000
    0.0000    3.3000    0.0000 C   0  0  0  0  0  0  0  0  0  0  0  0
    0.0000    2.4750    0.0000 C   0  0  0  0  0  0  0  0  0  0  0  0
    0.7145    2.0625    0.0000 C   0  0  0  0  0  0  0  0  0  0  0  0
    1.4289    2.4750    0.0000 C   0  0  0  0  0  0  0  0  0  0  0  0
    0.7145    1.2375    0.0000 N   0  0  0  0  0  0  0  0  0  0  0  0
    1.4289    0.8250    0.0000 C   0  0  0  0  0  0  0  0  0  0  0  0
    1.4289   -0.0000    0.0000 C   0  0  0  0  0  0  0  0  0  0  0  0
    0.7145   -0.4125    0.0000 C   0  0  0  0  0  0  0  0  0  0  0  0
    0.7145   -1.2375    0.0000 O   0  0  0  0  0  0  0  0  0  0  0  0
    0.0000    0.0000    0.0000 N   0  0  0  0  0  0  0  0  0  0  0  0
    0.0000    0.8250    0.0000 C   0  0  0  0  0  0  0  0  0  0  0  0
   -0.7145    1.2375    0.0000 O   0  0  0  0  0  0  0  0  0  0  0  0
  1  2  1  0  0  0  0
  2  3  1  0  0  0  0
  3  4  1  0  0  0  0
  3  5  1  0  0  0  0
  5  6  1  0  0  0  0
  6  7  1  0  0  0  0
  7  8  1  0  0  0  0
  8  9  2  0  0  0  0
  8 10  1  0  0  0  0
 10 11  1  0  0  0  0
  5 11  1  0  0  0  0
 11 12  2  0  0  0  0
M  END
>  <Catalog ID>
Z56347010

>  <PlateID>
1198308-R-SPFL-12

>  <Well>
F06

>  <MW (desalted)>
170.209

>  <ClogP>
-0.729

>  <HBD>
1

>  <TPSA>
49.410

>  <RotBonds>
2

$$$$

            

 11 10  0  0  0  0            999 V2000
    0.0000    0.0000    0.0000 Cl  0  0  0  0  0  0  0  0  0  0  0  0
    2.5413    0.8110    0.0000 C   0  0  0  0  0  0  0  0  0  0  0  0
    3.0716    0.1790    0.0000 C   0  0  0  0  0  0  0  0  0  0  0  0
    3.7861   -0.2335    0.0000 C   0  0  0  0  0  0  0  0  0  0  0  0
    3.7861   -1.0585    0.0000 N   0  0  0  0  0  0  0  0  0  0  0  0
    3.0716   -1.4710    0.0000 C   0  0  0  0  0  0  0  0  0  0  0  0
    2.3571   -1.0585    0.0000 C   0  0  0  0  0  0  0  0  0  0  0  0
    2.3571   -0.2335    0.0000 O   0  0  0  0  0  0  0  0  0  0  0  0
    3.6019    0.8110    0.0000 C   0  0  0  0  0  0  0  0  0  0  0  0
    3.3197    1.5862    0.0000 F   0  0  0  0  0  0  0  0  0  0  0  0
    4.4144    0.6677    0.0000 F   0  0  0  0  0  0  0  0  0  0  0  0
  2  3  1  0  0  0  0
  3  4  1  0  0  0  0
  4  5  1  0  0  0  0
  5  6  1  0  0  0  0
  6  7  1  0  0  0  0
  7  8  1  0  0  0  0
  3  8  1  0  0  0  0
  3  9  1  0  0  0  0
  9 10  1  0  0  0  0
  9 11  1  0  0  0  0
M  END
>  <Catalog ID>
Z2587931355

>  <PlateID>
1198308-R-SPFL-12

>  <Well>
F07

>  <MW (desalted)>
151.154

>  <ClogP>
0.676

>  <HBD>
1

>  <TPSA>
21.260

>  <RotBonds>
1

$$$$

            

 13 14  0  0  0  0            999 V2000
    0.7145   -2.8875    0.0000 C   0  0  0  0  0  0  0  0  0  0  0  0
    1.4289   -2.4750    0.0000 C   0  0  0  0  0  0  0  0  0  0  0  0
    2.1434   -2.8875    0.0000 O   0  0  0  0  0  0  0  0  0  0  0  0
    1.4289   -1.6500    0.0000 N   0  0  0  0  0  0  0  0  0  0  0  0
    0.7145   -1.2375    0.0000 C   0  0  0  0  0  0  0  0  0  0  0  0
    0.7145   -0.4125    0.0000 C   0  0  0  0  0  0  0  0  0  0  0  0
    1.4289    0.0000    0.0000 C   0  0  0  0  0  0  0  0  0  0  0  0
    2.1434   -0.4125    0.0000 C   0  0  0  0  0  0  0  0  0  0  0  0
    2.8579    0.0000    0.0000 C   0  0  0  0  0  0  0  0  0  0  0  0
    3.5724   -0.4125    0.0000 C   0  0  0  0  0  0  0  0  0  0  0  0
    3.5724   -1.2375    0.0000 C   0  0  0  0  0  0  0  0  0  0  0  0
    2.8579   -1.6500    0.0000 C   0  0  0  0  0  0  0  0  0  0  0  0
    2.1434   -1.2375    0.0000 C   0  0  0  0  0  0  0  0  0  0  0  0
  1  2  1  0  0  0  0
  2  3  2  0  0  0  0
  2  4  1  0  0  0  0
  4  5  1  0  0  0  0
  5  6  1  0  0  0  0
  6  7  1  0  0  0  0
  7  8  1  0  0  0  0
  8  9  2  0  0  0  0
  9 10  1  0  0  0  0
 10 11  2  0  0  0  0
 11 12  1  0  0  0  0
 12 13  2  0  0  0  0
  4 13  1  0  0  0  0
  8 13  1  0  0  0  0
M  END
>  <Catalog ID>
Z27693080

>  <PlateID>
1198308-R-SPFL-12

>  <Well>
F08

>  <MW (desalted)>
175.227

>  <ClogP>
1.771

>  <HBD>
0

>  <TPSA>
20.310

>  <RotBonds>
0

$$$$

            

 11 11  0  0  0  0            999 V2000
    0.0000    0.0000    0.0000 Cl  0  0  0  0  0  0  0  0  0  0  0  0
    2.3571   -0.2475    0.0000 C   0  0  0  0  0  0  0  0  0  0  0  0
    3.1821   -0.2475    0.0000 C   0  0  0  0  0  0  0  0  0  0  0  0
    3.1821   -1.0725    0.0000 N   0  0  0  0  0  0  0  0  0  0  0  0
    3.1821    0.5775    0.0000 C   0  0  0  0  0  0  0  0  0  0  0  0
    4.0071    0.5775    0.0000 C   0  0  0  0  0  0  0  0  0  0  0  0
    4.7216    0.9900    0.0000 C   0  0  0  0  0  0  0  0  0  0  0  0
    5.4361    0.5775    0.0000 C   0  0  0  0  0  0  0  0  0  0  0  0
    5.4361   -0.2475    0.0000 C   0  0  0  0  0  0  0  0  0  0  0  0
    4.7216   -0.6600    0.0000 C   0  0  0  0  0  0  0  0  0  0  0  0
    4.0071   -0.2475    0.0000 C   0  0  0  0  0  0  0  0  0  0  0  0
  2  3  1  0  0  0  0
  3  4  1  0  0  0  0
  3  5  1  0  0  0  0
  5  6  1  0  0  0  0
  6  7  2  0  0  0  0
  7  8  1  0  0  0  0
  8  9  2  0  0  0  0
  9 10  1  0  0  0  0
 10 11  2  0  0  0  0
  6 11  1  0  0  0  0
  3 11  1  0  0  0  0
M  END
>  <Catalog ID>
Z2467208412

>  <PlateID>
1198308-R-SPFL-12

>  <Well>
F09

>  <MW (desalted)>
133.190

>  <ClogP>
1.618

>  <HBD>
1

>  <TPSA>
26.020

>  <RotBonds>
0

$$$$

            

 16 18  0  0  0  0            999 V2000
    2.3645    1.8414    0.0000 O   0  0  0  0  0  0  0  0  0  0  0  0
    1.9520    1.1270    0.0000 C   0  0  0  0  0  0  0  0  0  0  0  0
    2.3645    0.4125    0.0000 C   0  0  0  0  0  0  0  0  0  0  0  0
    1.9520   -0.3020    0.0000 C   0  0  0  0  0  0  0  0  0  0  0  0
    1.1270   -0.3020    0.0000 N   0  0  0  0  0  0  0  0  0  0  0  0
    0.7145   -1.0164    0.0000 C   0  0  0  0  0  0  0  0  0  0  0  0
   -0.1105   -1.0164    0.0000 C   0  0  0  0  0  0  0  0  0  0  0  0
   -0.5230   -1.7309    0.0000 C   0  0  0  0  0  0  0  0  0  0  0  0
   -1.3480   -1.7309    0.0000 C   0  0  0  0  0  0  0  0  0  0  0  0
   -1.7605   -1.0164    0.0000 C   0  0  0  0  0  0  0  0  0  0  0  0
   -1.3480   -0.3020    0.0000 C   0  0  0  0  0  0  0  0  0  0  0  0
   -0.5230   -0.3020    0.0000 C   0  0  0  0  0  0  0  0  0  0  0  0
    0.7145    0.4125    0.0000 C   0  0  0  0  0  0  0  0  0  0  0  0
   -0.0000    0.0000    0.0000 C   0  0  0  0  0  0  0  0  0  0  0  0
    0.0000    0.8250    0.0000 C   0  0  0  0  0  0  0  0  0  0  0  0
    1.1270    1.1270    0.0000 C   0  0  0  0  0  0  0  0  0  0  0  0
  1  2  1  0  0  0  0
  2  3  1  0  0  0  0
  3  4  1  0  0  0  0
  4  5  1  0  0  0  0
  5  6  1  0  0  0  0
  6  7  1  0  0  0  0
  7  8  2  0  0  0  0
  8  9  1  0  0  0  0
  9 10  2  0  0  0  0
 10 11  1  0  0  0  0
 11 12  2  0  0  0  0
  7 12  1  0  0  0  0
  5 13  1  0  0  0  0
 13 14  1  0  0  0  0
 14 15  1  0  0  0  0
 13 15  1  0  0  0  0
 13 16  1  0  0  0  0
  2 16  1  0  0  0  0
M  END
>  <Catalog ID>
Z2327224777

>  <PlateID>
1198308-R-SPFL-12

>  <Well>
F10

>  <MW (desalted)>
217.307

>  <ClogP>
1.396

>  <HBD>
1

>  <TPSA>
23.470

>  <RotBonds>
2

$$$$

            

 12 12  0  0  0  0            999 V2000
    0.0000    4.1250    0.0000 F   0  0  0  0  0  0  0  0  0  0  0  0
    0.0000    3.3000    0.0000 C   0  0  0  0  0  0  0  0  0  0  0  0
   -0.8250    3.3000    0.0000 F   0  0  0  0  0  0  0  0  0  0  0  0
    0.8250    3.3000    0.0000 F   0  0  0  0  0  0  0  0  0  0  0  0
    0.0000    2.4750    0.0000 C   0  0  0  0  0  0  0  0  0  0  0  0
    0.7145    2.0625    0.0000 O   0  0  0  0  0  0  0  0  0  0  0  0
    0.7145    1.2375    0.0000 C   0  0  0  0  0  0  0  0  0  0  0  0
    1.4289    0.8250    0.0000 C   0  0  0  0  0  0  0  0  0  0  0  0
    1.4289   -0.0000    0.0000 C   0  0  0  0  0  0  0  0  0  0  0  0
    0.7145   -0.4125    0.0000 C   0  0  0  0  0  0  0  0  0  0  0  0
    0.0000    0.0000    0.0000 N   0  0  0  0  0  0  0  0  0  0  0  0
    0.0000    0.8250    0.0000 C   0  0  0  0  0  0  0  0  0  0  0  0
  1  2  1  0  0  0  0
  2  3  1  0  0  0  0
  2  4  1  0  0  0  0
  2  5  1  0  0  0  0
  5  6  1  0  0  0  0
  6  7  1  0  0  0  0
  7  8  1  0  0  0  0
  8  9  1  0  0  0  0
  9 10  1  0  0  0  0
 10 11  1  0  0  0  0
 11 12  1  0  0  0  0
  7 12  1  0  0  0  0
M  END
>  <Catalog ID>
Z336285042

>  <PlateID>
1198308-R-SPFL-12

>  <Well>
F11

>  <MW (desalted)>
183.171

>  <ClogP>
1.043

>  <HBD>
1

>  <TPSA>
21.260

>  <RotBonds>
3

$$$$

            

 10 10  0  0  0  0            999 V2000
   -0.8612    3.5893    0.0000 O   0  0  0  0  0  0  0  0  0  0  0  0
   -0.1467    3.1768    0.0000 C   0  0  0  0  0  0  0  0  0  0  0  0
    0.5678    3.5893    0.0000 O   0  0  0  0  0  0  0  0  0  0  0  0
   -0.1467    2.3518    0.0000 C   0  0  0  0  0  0  0  0  0  0  0  0
    0.5678    1.9393    0.0000 C   0  0  0  0  0  0  0  0  0  0  0  0
    0.5678    1.1143    0.0000 C   0  0  0  0  0  0  0  0  0  0  0  0
    1.2352    0.6294    0.0000 C   0  0  0  0  0  0  0  0  0  0  0  0
    0.9803   -0.1553    0.0000 C   0  0  0  0  0  0  0  0  0  0  0  0
    0.1553   -0.1553    0.0000 C   0  0  0  0  0  0  0  0  0  0  0  0
   -0.0997    0.6294    0.0000 S   0  0  0  0  0  0  0  0  0  0  0  0
  1  2  1  0  0  0  0
  2  3  2  0  0  0  0
  2  4  1  0  0  0  0
  4  5  1  0  0  0  0
  5  6  1  0  0  0  0
  6  7  2  0  0  0  0
  7  8  1  0  0  0  0
  8  9  2  0  0  0  0
  9 10  1  0  0  0  0
  6 10  1  0  0  0  0
M  END
>  <Catalog ID>
Z57052863

>  <PlateID>
1198308-R-SPFL-12

>  <Well>
G02

>  <MW (desalted)>
156.202

>  <ClogP>
1.549

>  <HBD>
1

>  <TPSA>
37.300

>  <RotBonds>
3

$$$$

            

 11 10  0  0  0  0            999 V2000
    0.0000    0.0000    0.0000 Cl  0  0  0  0  0  0  0  0  0  0  0  0
    3.6019    1.2893    0.0000 C   0  0  0  0  0  0  0  0  0  0  0  0
    3.0716    0.6574    0.0000 C   0  0  0  0  0  0  0  0  0  0  0  0
    2.5413    1.2893    0.0000 C   0  0  0  0  0  0  0  0  0  0  0  0
    3.7861    0.2449    0.0000 C   0  0  0  0  0  0  0  0  0  0  0  0
    3.7861   -0.5801    0.0000 C   0  0  0  0  0  0  0  0  0  0  0  0
    4.5006   -0.9926    0.0000 C   0  0  0  0  0  0  0  0  0  0  0  0
    5.2150   -0.5801    0.0000 N   0  0  0  0  0  0  0  0  0  0  0  0
    3.0716   -0.9926    0.0000 C   0  0  0  0  0  0  0  0  0  0  0  0
    2.3571   -0.5801    0.0000 C   0  0  0  0  0  0  0  0  0  0  0  0
    2.3571    0.2449    0.0000 O   0  0  0  0  0  0  0  0  0  0  0  0
  2  3  1  0  0  0  0
  3  4  1  0  0  0  0
  3  5  1  0  0  0  0
  5  6  1  0  0  0  0
  6  7  1  0  0  0  0
  7  8  1  0  0  0  0
  6  9  1  0  0  0  0
  9 10  1  0  0  0  0
 10 11  1  0  0  0  0
  3 11  1  0  0  0  0
M  END
>  <Catalog ID>
Z2284399645

>  <PlateID>
1198308-R-SPFL-12

>  <Well>
G03

>  <MW (desalted)>
143.227

>  <ClogP>
0.625

>  <HBD>
1

>  <TPSA>
35.250

>  <RotBonds>
1

$$$$

            

 14 13  0  0  0  0            999 V2000
    0.0000    0.0000    0.0000 Cl  0  0  0  0  0  0  0  0  0  0  0  0
    2.0036    0.0000    0.0000 Cl  0  0  0  0  0  0  0  0  0  0  0  0
   -1.8065   -4.8832    0.0000 N   0  0  0  0  0  0  0  0  0  0  0  0
   -1.5516   -4.0986    0.0000 C   0  0  0  0  0  0  0  0  0  0  0  0
   -0.7446   -3.9271    0.0000 C   0  0  0  0  0  0  0  0  0  0  0  0
   -0.4897   -3.1424    0.0000 N   0  0  0  0  0  0  0  0  0  0  0  0
   -0.9746   -2.4750    0.0000 C   0  0  0  0  0  0  0  0  0  0  0  0
   -0.4897   -1.8076    0.0000 C   0  0  0  0  0  0  0  0  0  0  0  0
    0.2950   -2.0625    0.0000 C   0  0  0  0  0  0  0  0  0  0  0  0
    1.0094   -1.6500    0.0000 C   0  0  0  0  0  0  0  0  0  0  0  0
    1.7239   -2.0625    0.0000 C   0  0  0  0  0  0  0  0  0  0  0  0
    1.7239   -2.8875    0.0000 C   0  0  0  0  0  0  0  0  0  0  0  0
    1.0094   -3.3000    0.0000 C   0  0  0  0  0  0  0  0  0  0  0  0
    0.2950   -2.8875    0.0000 C   0  0  0  0  0  0  0  0  0  0  0  0
  3  4  1  0  0  0  0
  4  5  1  0  0  0  0
  5  6  1  0  0  0  0
  6  7  1  0  0  0  0
  7  8  1  0  0  0  0
  8  9  1  0  0  0  0
  9 10  2  0  0  0  0
 10 11  1  0  0  0  0
 11 12  2  0  0  0  0
 12 13  1  0  0  0  0
 13 14  2  0  0  0  0
  6 14  1  0  0  0  0
  9 14  1  0  0  0  0
M  END
>  <Catalog ID>
Z594038402

>  <PlateID>
1198308-R-SPFL-12

>  <Well>
G04

>  <MW (desalted)>
162.232

>  <ClogP>
1.816

>  <HBD>
1

>  <TPSA>
29.260

>  <RotBonds>
2

$$$$

            

 11 12  0  0  0  0            999 V2000
    0.0000   -1.6500    0.0000 C   0  0  0  0  0  0  0  0  0  0  0  0
    0.7145   -1.2375    0.0000 C   0  0  0  0  0  0  0  0  0  0  0  0
    0.7145   -0.4125    0.0000 C   0  0  0  0  0  0  0  0  0  0  0  0
    1.4289    0.0000    0.0000 C   0  0  0  0  0  0  0  0  0  0  0  0
    2.1434   -0.4125    0.0000 C   0  0  0  0  0  0  0  0  0  0  0  0
    2.8579    0.0000    0.0000 N   0  0  0  0  0  0  0  0  0  0  0  0
    3.5724   -0.4125    0.0000 C   0  0  0  0  0  0  0  0  0  0  0  0
    3.5724   -1.2375    0.0000 C   0  0  0  0  0  0  0  0  0  0  0  0
    2.8579   -1.6500    0.0000 N   0  0  0  0  0  0  0  0  0  0  0  0
    2.1434   -1.2375    0.0000 C   0  0  0  0  0  0  0  0  0  0  0  0
    1.4289   -1.6500    0.0000 C   0  0  0  0  0  0  0  0  0  0  0  0
  1  2  1  0  0  0  0
  2  3  1  0  0  0  0
  3  4  2  0  0  0  0
  4  5  1  0  0  0  0
  5  6  2  0  0  0  0
  6  7  1  0  0  0  0
  7  8  2  0  0  0  0
  8  9  1  0  0  0  0
  9 10  2  0  0  0  0
  5 10  1  0  0  0  0
 10 11  1  0  0  0  0
  2 11  2  0  0  0  0
M  END
>  <Catalog ID>
Z1201617857

>  <PlateID>
1198308-R-SPFL-12

>  <Well>
G05

>  <MW (desalted)>
144.173

>  <ClogP>
1.781

>  <HBD>
0

>  <TPSA>
25.780

>  <RotBonds>
0

$$$$

            

 13 13  0  0  0  0            999 V2000
    0.0000    0.0000    0.0000 Cl  0  0  0  0  0  0  0  0  0  0  0  0
    2.3571   -0.4403    0.0000 N   0  0  0  0  0  0  0  0  0  0  0  0
    3.1108   -0.7758    0.0000 C   0  0  0  0  0  0  0  0  0  0  0  0
    3.7783   -0.2909    0.0000 C   0  0  0  0  0  0  0  0  0  0  0  0
    3.7783    0.5341    0.0000 C   0  0  0  0  0  0  0  0  0  0  0  0
    4.5629    0.7890    0.0000 C   0  0  0  0  0  0  0  0  0  0  0  0
    5.0478    0.1216    0.0000 C   0  0  0  0  0  0  0  0  0  0  0  0
    5.4603    0.8361    0.0000 C   0  0  0  0  0  0  0  0  0  0  0  0
    6.2853    0.8361    0.0000 C   0  0  0  0  0  0  0  0  0  0  0  0
    6.6978    0.1216    0.0000 C   0  0  0  0  0  0  0  0  0  0  0  0
    6.2853   -0.5929    0.0000 C   0  0  0  0  0  0  0  0  0  0  0  0
    5.4603   -0.5929    0.0000 C   0  0  0  0  0  0  0  0  0  0  0  0
    4.5629   -0.5458    0.0000 O   0  0  0  0  0  0  0  0  0  0  0  0
  2  3  1  0  0  0  0
  3  4  1  0  0  0  0
  4  5  1  0  0  0  0
  5  6  1  0  0  0  0
  6  7  1  0  0  0  0
  7  8  1  0  0  0  0
  8  9  1  0  0  0  0
  9 10  1  0  0  0  0
 10 11  1  0  0  0  0
 11 12  1  0  0  0  0
  7 12  1  0  0  0  0
  7 13  1  0  0  0  0
  4 13  1  0  0  0  0
M  END
>  <Catalog ID>
Z1837073488

>  <PlateID>
1198308-R-SPFL-12

>  <Well>
G06

>  <MW (desalted)>
169.264

>  <ClogP>
1.906

>  <HBD>
1

>  <TPSA>
35.250

>  <RotBonds>
1

$$$$

            

 11 11  0  0  0  0            999 V2000
   -0.7145    3.7125    0.0000 O   0  0  0  0  0  0  0  0  0  0  0  0
    0.0000    3.3000    0.0000 C   0  0  0  0  0  0  0  0  0  0  0  0
    0.0000    2.4750    0.0000 C   0  0  0  0  0  0  0  0  0  0  0  0
    0.7145    2.0625    0.0000 O   0  0  0  0  0  0  0  0  0  0  0  0
    0.7145    1.2375    0.0000 C   0  0  0  0  0  0  0  0  0  0  0  0
    1.4289    0.8250    0.0000 C   0  0  0  0  0  0  0  0  0  0  0  0
    1.4289   -0.0000    0.0000 C   0  0  0  0  0  0  0  0  0  0  0  0
    0.7145   -0.4125    0.0000 C   0  0  0  0  0  0  0  0  0  0  0  0
    0.0000    0.0000    0.0000 C   0  0  0  0  0  0  0  0  0  0  0  0
    0.0000    0.8250    0.0000 C   0  0  0  0  0  0  0  0  0  0  0  0
   -0.7145    1.2375    0.0000 F   0  0  0  0  0  0  0  0  0  0  0  0
  1  2  1  0  0  0  0
  2  3  1  0  0  0  0
  3  4  1  0  0  0  0
  4  5  1  0  0  0  0
  5  6  2  0  0  0  0
  6  7  1  0  0  0  0
  7  8  2  0  0  0  0
  8  9  1  0  0  0  0
  9 10  2  0  0  0  0
  5 10  1  0  0  0  0
 10 11  1  0  0  0  0
M  END
>  <Catalog ID>
Z425795714

>  <PlateID>
1198308-R-SPFL-12

>  <Well>
G07

>  <MW (desalted)>
156.154

>  <ClogP>
1.271

>  <HBD>
1

>  <TPSA>
29.460

>  <RotBonds>
3

$$$$

            

 11 11  0  0  0  0            999 V2000
    0.0000    0.0000    0.0000 Cl  0  0  0  0  0  0  0  0  0  0  0  0
    3.0716   -1.9234    0.0000 C   0  0  0  0  0  0  0  0  0  0  0  0
    2.4883   -1.3400    0.0000 C   0  0  0  0  0  0  0  0  0  0  0  0
    3.0716   -0.7567    0.0000 C   0  0  0  0  0  0  0  0  0  0  0  0
    3.6550   -1.3400    0.0000 C   0  0  0  0  0  0  0  0  0  0  0  0
    3.0716    0.0683    0.0000 C   0  0  0  0  0  0  0  0  0  0  0  0
    2.3571    0.4808    0.0000 C   0  0  0  0  0  0  0  0  0  0  0  0
    2.3571    1.3058    0.0000 C   0  0  0  0  0  0  0  0  0  0  0  0
    3.0716    1.7183    0.0000 C   0  0  0  0  0  0  0  0  0  0  0  0
    3.7861    1.3058    0.0000 C   0  0  0  0  0  0  0  0  0  0  0  0
    3.7861    0.4808    0.0000 N   0  0  0  0  0  0  0  0  0  0  0  0
  2  3  1  0  0  0  0
  3  4  1  0  0  0  0
  4  5  1  0  0  0  0
  2  5  1  0  0  0  0
  4  6  1  0  0  0  0
  6  7  1  0  0  0  0
  7  8  1  0  0  0  0
  8  9  1  0  0  0  0
  9 10  1  0  0  0  0
 10 11  1  0  0  0  0
  6 11  1  0  0  0  0
M  END
>  <Catalog ID>
Z2310728029

>  <PlateID>
1198308-R-SPFL-12

>  <Well>
G08

>  <MW (desalted)>
139.238

>  <ClogP>
2.367

>  <HBD>
1

>  <TPSA>
12.030

>  <RotBonds>
1

$$$$

            

 11 12  0  0  0  0            999 V2000
    3.8339    2.2135    0.0000 F   0  0  0  0  0  0  0  0  0  0  0  0
    3.1194    1.8010    0.0000 C   0  0  0  0  0  0  0  0  0  0  0  0
    3.1194    0.9760    0.0000 C   0  0  0  0  0  0  0  0  0  0  0  0
    2.4049    0.5635    0.0000 C   0  0  0  0  0  0  0  0  0  0  0  0
    1.6905    0.9760    0.0000 C   0  0  0  0  0  0  0  0  0  0  0  0
    0.8655    0.9760    0.0000 C   0  0  0  0  0  0  0  0  0  0  0  0
    0.8655    1.8010    0.0000 C   0  0  0  0  0  0  0  0  0  0  0  0
    0.2821    2.3843    0.0000 C   0  0  0  0  0  0  0  0  0  0  0  0
   -0.3013    2.9677    0.0000 N   0  0  0  0  0  0  0  0  0  0  0  0
    1.6905    1.8010    0.0000 C   0  0  0  0  0  0  0  0  0  0  0  0
    2.4049    2.2135    0.0000 C   0  0  0  0  0  0  0  0  0  0  0  0
  1  2  1  0  0  0  0
  2  3  2  0  0  0  0
  3  4  1  0  0  0  0
  4  5  2  0  0  0  0
  5  6  1  0  0  0  0
  6  7  1  0  0  0  0
  7  8  1  0  0  0  0
  8  9  3  0  0  0  0
  7 10  1  0  0  0  0
  5 10  1  0  0  0  0
 10 11  2  0  0  0  0
  2 11  1  0  0  0  0
M  END
>  <Catalog ID>
Z1216846090

>  <PlateID>
1198308-R-SPFL-12

>  <Well>
G09

>  <MW (desalted)>
147.149

>  <ClogP>
1.712

>  <HBD>
0

>  <TPSA>
23.790

>  <RotBonds>
0

$$$$

            

 11 11  0  0  0  0            999 V2000
    0.0000    0.0000    0.0000 Cl  0  0  0  0  0  0  0  0  0  0  0  0
    2.9405    0.1816    0.0000 C   0  0  0  0  0  0  0  0  0  0  0  0
    2.9405   -0.6434    0.0000 C   0  0  0  0  0  0  0  0  0  0  0  0
    3.5239   -1.2267    0.0000 C   0  0  0  0  0  0  0  0  0  0  0  0
    2.9405   -1.8101    0.0000 N   0  0  0  0  0  0  0  0  0  0  0  0
    2.3571   -1.2267    0.0000 C   0  0  0  0  0  0  0  0  0  0  0  0
    3.6550    0.5941    0.0000 C   0  0  0  0  0  0  0  0  0  0  0  0
    3.7412    1.4146    0.0000 C   0  0  0  0  0  0  0  0  0  0  0  0
    4.5482    1.5862    0.0000 C   0  0  0  0  0  0  0  0  0  0  0  0
    4.9607    0.8717    0.0000 S   0  0  0  0  0  0  0  0  0  0  0  0
    4.4087    0.2586    0.0000 C   0  0  0  0  0  0  0  0  0  0  0  0
  2  3  1  0  0  0  0
  3  4  1  0  0  0  0
  4  5  1  0  0  0  0
  5  6  1  0  0  0  0
  3  6  1  0  0  0  0
  2  7  1  0  0  0  0
  7  8  1  0  0  0  0
  8  9  2  0  0  0  0
  9 10  1  0  0  0  0
 10 11  1  0  0  0  0
  7 11  2  0  0  0  0
M  END
>  <Catalog ID>
Z2310723163

>  <PlateID>
1198308-R-SPFL-12

>  <Well>
G10

>  <MW (desalted)>
153.245

>  <ClogP>
1.400

>  <HBD>
1

>  <TPSA>
12.030

>  <RotBonds>
2

$$$$

            

 15 16  0  0  0  0            999 V2000
    2.8579    0.0000    0.0000 O   0  0  0  0  0  0  0  0  0  0  0  0
    2.1434   -0.4125    0.0000 C   0  0  0  0  0  0  0  0  0  0  0  0
    2.1434   -1.2375    0.0000 C   0  0  0  0  0  0  0  0  0  0  0  0
    2.8579   -1.6500    0.0000 C   0  0  0  0  0  0  0  0  0  0  0  0
    2.8579   -2.4750    0.0000 C   0  0  0  0  0  0  0  0  0  0  0  0
    2.1434   -2.8875    0.0000 C   0  0  0  0  0  0  0  0  0  0  0  0
    1.4289   -2.4750    0.0000 N   0  0  0  0  0  0  0  0  0  0  0  0
    0.7145   -2.8875    0.0000 C   0  0  0  0  0  0  0  0  0  0  0  0
    0.0000   -2.4750    0.0000 C   0  0  0  0  0  0  0  0  0  0  0  0
   -0.7145   -2.8875    0.0000 C   0  0  0  0  0  0  0  0  0  0  0  0
   -1.4289   -2.4750    0.0000 C   0  0  0  0  0  0  0  0  0  0  0  0
   -1.4289   -1.6500    0.0000 C   0  0  0  0  0  0  0  0  0  0  0  0
   -0.7145   -1.2375    0.0000 C   0  0  0  0  0  0  0  0  0  0  0  0
    0.0000   -1.6500    0.0000 C   0  0  0  0  0  0  0  0  0  0  0  0
    1.4289   -1.6500    0.0000 C   0  0  0  0  0  0  0  0  0  0  0  0
  1  2  1  0  0  0  0
  2  3  1  0  0  0  0
  3  4  1  0  0  0  0
  4  5  1  0  0  0  0
  5  6  1  0  0  0  0
  6  7  1  0  0  0  0
  7  8  1  0  0  0  0
  8  9  1  0  0  0  0
  9 10  2  0  0  0  0
 10 11  1  0  0  0  0
 11 12  2  0  0  0  0
 12 13  1  0  0  0  0
 13 14  2  0  0  0  0
  9 14  1  0  0  0  0
  7 15  1  0  0  0  0
  3 15  1  0  0  0  0
M  END
>  <Catalog ID>
Z54751457

>  <PlateID>
1198308-R-SPFL-12

>  <Well>
G11

>  <MW (desalted)>
205.296

>  <ClogP>
1.701

>  <HBD>
1

>  <TPSA>
23.470

>  <RotBonds>
3

$$$$

            

 10 10  0  0  0  0            999 V2000
   -0.1467    2.3518    0.0000 C   0  0  0  0  0  0  0  0  0  0  0  0
    0.5678    1.9393    0.0000 C   0  0  0  0  0  0  0  0  0  0  0  0
    1.2822    2.3518    0.0000 C   0  0  0  0  0  0  0  0  0  0  0  0
    0.5678    1.1143    0.0000 C   0  0  0  0  0  0  0  0  0  0  0  0
    1.2352    0.6294    0.0000 N   0  0  0  0  0  0  0  0  0  0  0  0
    0.9803   -0.1553    0.0000 C   0  0  0  0  0  0  0  0  0  0  0  0
    1.4652   -0.8227    0.0000 O   0  0  0  0  0  0  0  0  0  0  0  0
    0.1553   -0.1553    0.0000 N   0  0  0  0  0  0  0  0  0  0  0  0
   -0.0997    0.6294    0.0000 C   0  0  0  0  0  0  0  0  0  0  0  0
   -0.8843    0.8843    0.0000 O   0  0  0  0  0  0  0  0  0  0  0  0
  1  2  1  0  0  0  0
  2  3  1  0  0  0  0
  2  4  1  0  0  0  0
  4  5  1  0  0  0  0
  5  6  1  0  0  0  0
  6  7  2  0  0  0  0
  6  8  1  0  0  0  0
  8  9  1  0  0  0  0
  4  9  1  0  0  0  0
  9 10  2  0  0  0  0
M  END
>  <Catalog ID>
Z147652472

>  <PlateID>
1198308-R-SPFL-12

>  <Well>
H02

>  <MW (desalted)>
142.156

>  <ClogP>
-0.244

>  <HBD>
2

>  <TPSA>
58.200

>  <RotBonds>
1

$$$$

            

 11 10  0  0  0  0            999 V2000
    0.0000    0.0000    0.0000 Cl  0  0  0  0  0  0  0  0  0  0  0  0
    4.6835    2.3596    0.0000 C   0  0  0  0  0  0  0  0  0  0  0  0
    3.9690    1.9471    0.0000 N   0  0  0  0  0  0  0  0  0  0  0  0
    3.9690    1.1221    0.0000 C   0  0  0  0  0  0  0  0  0  0  0  0
    3.2546    0.7096    0.0000 C   0  0  0  0  0  0  0  0  0  0  0  0
    3.2546   -0.1154    0.0000 C   0  0  0  0  0  0  0  0  0  0  0  0
    3.9220   -0.6003    0.0000 N   0  0  0  0  0  0  0  0  0  0  0  0
    3.6671   -1.3850    0.0000 O   0  0  0  0  0  0  0  0  0  0  0  0
    2.8421   -1.3850    0.0000 C   0  0  0  0  0  0  0  0  0  0  0  0
    2.3571   -2.0524    0.0000 C   0  0  0  0  0  0  0  0  0  0  0  0
    2.5871   -0.6003    0.0000 N   0  0  0  0  0  0  0  0  0  0  0  0
  2  3  1  0  0  0  0
  3  4  1  0  0  0  0
  4  5  1  0  0  0  0
  5  6  1  0  0  0  0
  6  7  2  0  0  0  0
  7  8  1  0  0  0  0
  8  9  1  0  0  0  0
  9 10  1  0  0  0  0
  9 11  2  0  0  0  0
  6 11  1  0  0  0  0
M  END
>  <Catalog ID>
Z1716269483

>  <PlateID>
1198308-R-SPFL-12

>  <Well>
H03

>  <MW (desalted)>
141.171

>  <ClogP>
-1.030

>  <HBD>
1

>  <TPSA>
50.950

>  <RotBonds>
3

$$$$

            

 10 10  0  0  0  0            999 V2000
    0.0000    2.4750    0.0000 C   0  0  0  0  0  0  0  0  0  0  0  0
    0.7145    2.0625    0.0000 C   0  0  0  0  0  0  0  0  0  0  0  0
    1.4289    2.4750    0.0000 C   0  0  0  0  0  0  0  0  0  0  0  0
    0.7145    1.2375    0.0000 C   0  0  0  0  0  0  0  0  0  0  0  0
    1.4289    0.8250    0.0000 C   0  0  0  0  0  0  0  0  0  0  0  0
    1.4289   -0.0000    0.0000 C   0  0  0  0  0  0  0  0  0  0  0  0
    0.7145   -0.4125    0.0000 C   0  0  0  0  0  0  0  0  0  0  0  0
    0.0000    0.0000    0.0000 N   0  0  0  0  0  0  0  0  0  0  0  0
    0.0000    0.8250    0.0000 C   0  0  0  0  0  0  0  0  0  0  0  0
   -0.7145    1.2375    0.0000 O   0  0  0  0  0  0  0  0  0  0  0  0
  1  2  1  0  0  0  0
  2  3  1  0  0  0  0
  2  4  1  0  0  0  0
  4  5  1  0  0  0  0
  5  6  1  0  0  0  0
  6  7  1  0  0  0  0
  7  8  1  0  0  0  0
  8  9  1  0  0  0  0
  4  9  1  0  0  0  0
  9 10  2  0  0  0  0
M  END
>  <Catalog ID>
Z1203747730

>  <PlateID>
1198308-R-SPFL-12

>  <Well>
H04

>  <MW (desalted)>
141.211

>  <ClogP>
1.033

>  <HBD>
1

>  <TPSA>
29.100

>  <RotBonds>
1

$$$$

            

 14 12  0  0  0  0            999 V2000
    0.0000    0.0000    0.0000 Cl  0  0  0  0  0  0  0  0  0  0  0  0
    2.0036    0.0000    0.0000 Cl  0  0  0  0  0  0  0  0  0  0  0  0
    0.5954   -1.6500    0.0000 N   0  0  0  0  0  0  0  0  0  0  0  0
    0.5954   -2.4750    0.0000 C   0  0  0  0  0  0  0  0  0  0  0  0
    1.3099   -2.8875    0.0000 C   0  0  0  0  0  0  0  0  0  0  0  0
    1.3099   -3.7125    0.0000 C   0  0  0  0  0  0  0  0  0  0  0  0
    0.5954   -4.1250    0.0000 C   0  0  0  0  0  0  0  0  0  0  0  0
   -0.1191   -3.7125    0.0000 N   0  0  0  0  0  0  0  0  0  0  0  0
   -0.8335   -4.1250    0.0000 C   0  0  0  0  0  0  0  0  0  0  0  0
   -0.8335   -4.9500    0.0000 C   0  0  0  0  0  0  0  0  0  0  0  0
   -0.8335   -5.7750    0.0000 F   0  0  0  0  0  0  0  0  0  0  0  0
   -1.6585   -4.9500    0.0000 F   0  0  0  0  0  0  0  0  0  0  0  0
   -0.0085   -4.9500    0.0000 F   0  0  0  0  0  0  0  0  0  0  0  0
   -0.1191   -2.8875    0.0000 C   0  0  0  0  0  0  0  0  0  0  0  0
  3  4  1  0  0  0  0
  4  5  1  0  0  0  0
  5  6  1  0  0  0  0
  6  7  1  0  0  0  0
  7  8  1  0  0  0  0
  8  9  1  0  0  0  0
  9 10  1  0  0  0  0
 10 11  1  0  0  0  0
 10 12  1  0  0  0  0
 10 13  1  0  0  0  0
  8 14  1  0  0  0  0
  4 14  1  0  0  0  0
M  END
>  <Catalog ID>
Z2111525966

>  <PlateID>
1198308-R-SPFL-12

>  <Well>
H05

>  <MW (desalted)>
182.187

>  <ClogP>
0.916

>  <HBD>
1

>  <TPSA>
29.260

>  <RotBonds>
2

$$$$

            

 10 11  0  0  0  0            999 V2000
    4.0668    2.3479    0.0000 Cl  0  0  0  0  0  0  0  0  0  0  0  0
    3.3523    1.9354    0.0000 C   0  0  0  0  0  0  0  0  0  0  0  0
    3.3523    1.1104    0.0000 C   0  0  0  0  0  0  0  0  0  0  0  0
    2.6378    0.6979    0.0000 N   0  0  0  0  0  0  0  0  0  0  0  0
    1.9233    1.1104    0.0000 C   0  0  0  0  0  0  0  0  0  0  0  0
    1.1387    0.8555    0.0000 O   0  0  0  0  0  0  0  0  0  0  0  0
    0.6538    1.5229    0.0000 C   0  0  0  0  0  0  0  0  0  0  0  0
    1.1387    2.1904    0.0000 C   0  0  0  0  0  0  0  0  0  0  0  0
    1.9233    1.9354    0.0000 C   0  0  0  0  0  0  0  0  0  0  0  0
    2.6378    2.3479    0.0000 C   0  0  0  0  0  0  0  0  0  0  0  0
  1  2  1  0  0  0  0
  2  3  2  0  0  0  0
  3  4  1  0  0  0  0
  4  5  2  0  0  0  0
  5  6  1  0  0  0  0
  6  7  1  0  0  0  0
  7  8  2  0  0  0  0
  8  9  1  0  0  0  0
  5  9  1  0  0  0  0
  9 10  2  0  0  0  0
  2 10  1  0  0  0  0
M  END
>  <Catalog ID>
Z1862012743

>  <PlateID>
1198308-R-SPFL-12

>  <Well>
H06

>  <MW (desalted)>
153.566

>  <ClogP>
2.002

>  <HBD>
0

>  <TPSA>
26.030

>  <RotBonds>
0

$$$$

            

 13 14  0  0  0  0            999 V2000
   -1.4087   -1.4124    0.0000 O   0  0  0  0  0  0  0  0  0  0  0  0
   -0.5837   -1.4124    0.0000 C   0  0  0  0  0  0  0  0  0  0  0  0
   -0.1712   -2.1269    0.0000 O   0  0  0  0  0  0  0  0  0  0  0  0
   -0.1712   -0.6979    0.0000 C   0  0  0  0  0  0  0  0  0  0  0  0
    0.6538   -0.6979    0.0000 C   0  0  0  0  0  0  0  0  0  0  0  0
    1.1387   -0.0305    0.0000 C   0  0  0  0  0  0  0  0  0  0  0  0
    1.9233   -0.2854    0.0000 C   0  0  0  0  0  0  0  0  0  0  0  0
    2.6378    0.1271    0.0000 C   0  0  0  0  0  0  0  0  0  0  0  0
    3.3523   -0.2854    0.0000 C   0  0  0  0  0  0  0  0  0  0  0  0
    3.3523   -1.1104    0.0000 C   0  0  0  0  0  0  0  0  0  0  0  0
    2.6378   -1.5229    0.0000 C   0  0  0  0  0  0  0  0  0  0  0  0
    1.9233   -1.1104    0.0000 C   0  0  0  0  0  0  0  0  0  0  0  0
    1.1387   -1.3654    0.0000 O   0  0  0  0  0  0  0  0  0  0  0  0
  1  2  1  0  0  0  0
  2  3  2  0  0  0  0
  2  4  1  0  0  0  0
  4  5  1  0  0  0  0
  5  6  2  0  0  0  0
  6  7  1  0  0  0  0
  7  8  2  0  0  0  0
  8  9  1  0  0  0  0
  9 10  2  0  0  0  0
 10 11  1  0  0  0  0
 11 12  2  0  0  0  0
  7 12  1  0  0  0  0
 12 13  1  0  0  0  0
  5 13  1  0  0  0  0
M  END
>  <Catalog ID>
Z235569554

>  <PlateID>
1198308-R-SPFL-12

>  <Well>
H07

>  <MW (desalted)>
176.169

>  <ClogP>
1.974

>  <HBD>
1

>  <TPSA>
50.440

>  <RotBonds>
2

$$$$

            

 11 12  0  0  0  0            999 V2000
    4.0668    2.3479    0.0000 C   0  0  0  0  0  0  0  0  0  0  0  0
    3.3523    1.9354    0.0000 C   0  0  0  0  0  0  0  0  0  0  0  0
    3.3523    1.1104    0.0000 C   0  0  0  0  0  0  0  0  0  0  0  0
    2.6378    0.6979    0.0000 C   0  0  0  0  0  0  0  0  0  0  0  0
    2.6378   -0.1271    0.0000 C   0  0  0  0  0  0  0  0  0  0  0  0
    1.9233    1.1104    0.0000 N   0  0  0  0  0  0  0  0  0  0  0  0
    1.1387    0.8555    0.0000 N   0  0  0  0  0  0  0  0  0  0  0  0
    0.6538    1.5229    0.0000 C   0  0  0  0  0  0  0  0  0  0  0  0
    1.1387    2.1904    0.0000 N   0  0  0  0  0  0  0  0  0  0  0  0
    1.9233    1.9354    0.0000 C   0  0  0  0  0  0  0  0  0  0  0  0
    2.6378    2.3479    0.0000 N   0  0  0  0  0  0  0  0  0  0  0  0
  1  2  1  0  0  0  0
  2  3  1  0  0  0  0
  3  4  2  0  0  0  0
  4  5  1  0  0  0  0
  4  6  1  0  0  0  0
  6  7  1  0  0  0  0
  7  8  2  0  0  0  0
  8  9  1  0  0  0  0
  9 10  2  0  0  0  0
  6 10  1  0  0  0  0
 10 11  1  0  0  0  0
  2 11  2  0  0  0  0
M  END
>  <Catalog ID>
Z56791128

>  <PlateID>
1198308-R-SPFL-12

>  <Well>
H08

>  <MW (desalted)>
148.165

>  <ClogP>
0.352

>  <HBD>
0

>  <TPSA>
43.080

>  <RotBonds>
0

$$$$

            

 11 12  0  0  0  0            999 V2000
   -1.2375   -0.7145    0.0000 O   0  0  0  0  0  0  0  0  0  0  0  0
   -0.4125   -0.7145    0.0000 C   0  0  0  0  0  0  0  0  0  0  0  0
   -0.0000   -1.4289    0.0000 O   0  0  0  0  0  0  0  0  0  0  0  0
   -0.0000    0.0000    0.0000 C   0  0  0  0  0  0  0  0  0  0  0  0
    0.0000    0.8250    0.0000 C   0  0  0  0  0  0  0  0  0  0  0  0
    0.7145    0.4125    0.0000 C   0  0  0  0  0  0  0  0  0  0  0  0
    1.1270    1.1270    0.0000 C   0  0  0  0  0  0  0  0  0  0  0  0
    1.9520    1.1270    0.0000 C   0  0  0  0  0  0  0  0  0  0  0  0
    2.3645    0.4125    0.0000 S   0  0  0  0  0  0  0  0  0  0  0  0
    1.9520   -0.3020    0.0000 C   0  0  0  0  0  0  0  0  0  0  0  0
    1.1270   -0.3020    0.0000 C   0  0  0  0  0  0  0  0  0  0  0  0
  1  2  1  0  0  0  0
  2  3  2  0  0  0  0
  2  4  1  0  0  0  0
  4  5  1  0  0  0  0
  5  6  1  0  0  0  0
  4  6  1  0  0  0  0
  6  7  1  0  0  0  0
  7  8  1  0  0  0  0
  8  9  1  0  0  0  0
  9 10  1  0  0  0  0
 10 11  1  0  0  0  0
  6 11  1  0  0  0  0
M  END
>  <Catalog ID>
Z979743452

>  <PlateID>
1198308-R-SPFL-12

>  <Well>
H09

>  <MW (desalted)>
172.245

>  <ClogP>
1.032

>  <HBD>
1

>  <TPSA>
37.300

>  <RotBonds>
1

$$$$

            

 10 10  0  0  1  0            999 V2000
    0.0000    3.3000    0.0000 C   0  0  0  0  0  0  0  0  0  0  0  0
    0.0000    2.4750    0.0000 C   0  0  0  0  0  0  0  0  0  0  0  0
   -0.7145    2.0625    0.0000 C   0  0  0  0  0  0  0  0  0  0  0  0
    0.7145    2.0625    0.0000 C   0  0  0  0  0  0  0  0  0  0  0  0
    0.7145    1.2375    0.0000 C   0  0  1  0  0  0  0  0  0  0  0  0
    1.4289    0.8250    0.0000 C   0  0  0  0  0  0  0  0  0  0  0  0
    1.4289   -0.0000    0.0000 O   0  0  0  0  0  0  0  0  0  0  0  0
    0.7145   -0.4125    0.0000 C   0  0  0  0  0  0  0  0  0  0  0  0
    0.0000    0.0000    0.0000 C   0  0  0  0  0  0  0  0  0  0  0  0
    0.0000    0.8250    0.0000 N   0  0  0  0  0  0  0  0  0  0  0  0
  1  2  1  0  0  0  0
  2  3  1  0  0  0  0
  2  4  1  0  0  0  0
  5  4  1  1  0  0  0
  5  6  1  0  0  0  0
  6  7  1  0  0  0  0
  7  8  1  0  0  0  0
  8  9  1  0  0  0  0
  9 10  1  0  0  0  0
  5 10  1  0  0  0  0
M  END
>  <Catalog ID>
Z1198329653

>  <PlateID>
1198308-R-SPFL-12

>  <Well>
H10

>  <MW (desalted)>
143.227

>  <ClogP>
1.568

>  <HBD>
1

>  <TPSA>
21.260

>  <RotBonds>
2

$$$$

            

 11 12  0  0  0  0            999 V2000
   -0.1712   -0.6979    0.0000 C   0  0  0  0  0  0  0  0  0  0  0  0
    0.6538   -0.6979    0.0000 C   0  0  0  0  0  0  0  0  0  0  0  0
    1.1387   -0.0305    0.0000 N   0  0  0  0  0  0  0  0  0  0  0  0
    1.9233   -0.2854    0.0000 C   0  0  0  0  0  0  0  0  0  0  0  0
    2.6378    0.1271    0.0000 C   0  0  0  0  0  0  0  0  0  0  0  0
    3.3523   -0.2854    0.0000 C   0  0  0  0  0  0  0  0  0  0  0  0
    4.0668    0.1271    0.0000 C   0  0  0  0  0  0  0  0  0  0  0  0
    3.3523   -1.1104    0.0000 C   0  0  0  0  0  0  0  0  0  0  0  0
    2.6378   -1.5229    0.0000 C   0  0  0  0  0  0  0  0  0  0  0  0
    1.9233   -1.1104    0.0000 C   0  0  0  0  0  0  0  0  0  0  0  0
    1.1387   -1.3654    0.0000 N   0  0  0  0  0  0  0  0  0  0  0  0
  1  2  1  0  0  0  0
  2  3  2  0  0  0  0
  3  4  1  0  0  0  0
  4  5  2  0  0  0  0
  5  6  1  0  0  0  0
  6  7  1  0  0  0  0
  6  8  2  0  0  0  0
  8  9  1  0  0  0  0
  9 10  2  0  0  0  0
  4 10  1  0  0  0  0
 10 11  1  0  0  0  0
  2 11  1  0  0  0  0
M  END
>  <Catalog ID>
Z57370047

>  <PlateID>
1198308-R-SPFL-12

>  <Well>
H11

>  <MW (desalted)>
146.189

>  <ClogP>
2.333

>  <HBD>
1

>  <TPSA>
28.680

>  <RotBonds>
0

$$$$

            

 10 10  0  0  0  0            999 V2000
    0.0000    3.3000    0.0000 F   0  0  0  0  0  0  0  0  0  0  0  0
    0.0000    2.4750    0.0000 C   0  0  0  0  0  0  0  0  0  0  0  0
    0.7145    2.0625    0.0000 C   0  0  0  0  0  0  0  0  0  0  0  0
    0.7145    1.2375    0.0000 C   0  0  0  0  0  0  0  0  0  0  0  0
    1.4289    0.8250    0.0000 C   0  0  0  0  0  0  0  0  0  0  0  0
    1.4289   -0.0000    0.0000 C   0  0  0  0  0  0  0  0  0  0  0  0
    0.7145   -0.4125    0.0000 C   0  0  0  0  0  0  0  0  0  0  0  0
    0.0000    0.0000    0.0000 N   0  0  0  0  0  0  0  0  0  0  0  0
    0.0000    0.8250    0.0000 C   0  0  0  0  0  0  0  0  0  0  0  0
   -0.7145    1.2375    0.0000 O   0  0  0  0  0  0  0  0  0  0  0  0
  1  2  1  0  0  0  0
  2  3  1  0  0  0  0
  3  4  1  0  0  0  0
  4  5  1  0  0  0  0
  5  6  1  0  0  0  0
  6  7  1  0  0  0  0
  7  8  1  0  0  0  0
  8  9  1  0  0  0  0
  4  9  1  0  0  0  0
  9 10  2  0  0  0  0
M  END
>  <Catalog ID>
Z1685768556

>  <PlateID>
1198308-R-SPFL-13

>  <Well>
A02

>  <MW (desalted)>
145.175

>  <ClogP>
0.057

>  <HBD>
1

>  <TPSA>
29.100

>  <RotBonds>
2

$$$$

            

 12 13  0  0  0  0            999 V2000
    0.7145   -0.4125    0.0000 N   0  0  0  0  0  0  0  0  0  0  0  0
    0.7145   -1.2375    0.0000 C   0  0  0  0  0  0  0  0  0  0  0  0
    1.3819   -1.7224    0.0000 N   0  0  0  0  0  0  0  0  0  0  0  0
    1.1270   -2.5070    0.0000 N   0  0  0  0  0  0  0  0  0  0  0  0
    0.3020   -2.5070    0.0000 C   0  0  0  0  0  0  0  0  0  0  0  0
    0.0470   -1.7224    0.0000 N   0  0  0  0  0  0  0  0  0  0  0  0
   -0.7376   -1.4675    0.0000 C   0  0  0  0  0  0  0  0  0  0  0  0
   -1.3507   -2.0195    0.0000 C   0  0  0  0  0  0  0  0  0  0  0  0
   -2.1353   -1.7646    0.0000 C   0  0  0  0  0  0  0  0  0  0  0  0
   -2.3068   -0.9576    0.0000 C   0  0  0  0  0  0  0  0  0  0  0  0
   -1.6937   -0.4056    0.0000 C   0  0  0  0  0  0  0  0  0  0  0  0
   -0.9091   -0.6605    0.0000 C   0  0  0  0  0  0  0  0  0  0  0  0
  1  2  1  0  0  0  0
  2  3  2  0  0  0  0
  3  4  1  0  0  0  0
  4  5  2  0  0  0  0
  5  6  1  0  0  0  0
  2  6  1  0  0  0  0
  6  7  1  0  0  0  0
  7  8  2  0  0  0  0
  8  9  1  0  0  0  0
  9 10  2  0  0  0  0
 10 11  1  0  0  0  0
 11 12  2  0  0  0  0
  7 12  1  0  0  0  0
M  END
>  <Catalog ID>
Z995129300

>  <PlateID>
1198308-R-SPFL-13

>  <Well>
A03

>  <MW (desalted)>
160.176

>  <ClogP>
1.053

>  <HBD>
1

>  <TPSA>
56.730

>  <RotBonds>
1

$$$$

            

 14 15  0  0  0  0            999 V2000
    0.8838   -2.1500    0.0000 C   0  0  0  0  0  0  0  0  0  0  0  0
    1.1387   -1.3654    0.0000 N   0  0  0  0  0  0  0  0  0  0  0  0
    0.6538   -0.6979    0.0000 N   0  0  0  0  0  0  0  0  0  0  0  0
    1.1387   -0.0305    0.0000 C   0  0  0  0  0  0  0  0  0  0  0  0
    1.9233   -0.2854    0.0000 C   0  0  0  0  0  0  0  0  0  0  0  0
    2.6378    0.1271    0.0000 C   0  0  0  0  0  0  0  0  0  0  0  0
    3.3523   -0.2854    0.0000 N   0  0  0  0  0  0  0  0  0  0  0  0
    3.3523   -1.1104    0.0000 C   0  0  0  0  0  0  0  0  0  0  0  0
    2.6378   -1.5229    0.0000 C   0  0  0  0  0  0  0  0  0  0  0  0
    1.9233   -1.1104    0.0000 C   0  0  0  0  0  0  0  0  0  0  0  0
    0.8838    0.7541    0.0000 C   0  0  0  0  0  0  0  0  0  0  0  0
    0.6288    1.5387    0.0000 F   0  0  0  0  0  0  0  0  0  0  0  0
    1.6684    1.0091    0.0000 F   0  0  0  0  0  0  0  0  0  0  0  0
    0.0992    0.4992    0.0000 F   0  0  0  0  0  0  0  0  0  0  0  0
  1  2  1  0  0  0  0
  2  3  1  0  0  0  0
  3  4  2  0  0  0  0
  4  5  1  0  0  0  0
  5  6  2  0  0  0  0
  6  7  1  0  0  0  0
  7  8  2  0  0  0  0
  8  9  1  0  0  0  0
  9 10  2  0  0  0  0
  2 10  1  0  0  0  0
  5 10  1  0  0  0  0
  4 11  1  0  0  0  0
 11 12  1  0  0  0  0
 11 13  1  0  0  0  0
 11 14  1  0  0  0  0
M  END
>  <Catalog ID>
Z1269232715

>  <PlateID>
1198308-R-SPFL-13

>  <Well>
A04

>  <MW (desalted)>
201.149

>  <ClogP>
1.365

>  <HBD>
0

>  <TPSA>
30.710

>  <RotBonds>
1

$$$$

            

 11 12  0  0  0  0            999 V2000
    3.2789    2.0625    0.0000 C   0  0  0  0  0  0  0  0  0  0  0  0
    3.2789    1.2375    0.0000 C   0  0  0  0  0  0  0  0  0  0  0  0
    3.9934    0.8250    0.0000 N   0  0  0  0  0  0  0  0  0  0  0  0
    3.9934    0.0000    0.0000 C   0  0  0  0  0  0  0  0  0  0  0  0
    3.2789   -0.4125    0.0000 C   0  0  0  0  0  0  0  0  0  0  0  0
    2.5645    0.0000    0.0000 N   0  0  0  0  0  0  0  0  0  0  0  0
    1.7798   -0.2549    0.0000 C   0  0  0  0  0  0  0  0  0  0  0  0
    1.5249   -1.0396    0.0000 C   0  0  0  0  0  0  0  0  0  0  0  0
    1.2949    0.4125    0.0000 C   0  0  0  0  0  0  0  0  0  0  0  0
    1.7798    1.0799    0.0000 C   0  0  0  0  0  0  0  0  0  0  0  0
    2.5645    0.8250    0.0000 C   0  0  0  0  0  0  0  0  0  0  0  0
  1  2  1  0  0  0  0
  2  3  1  0  0  0  0
  3  4  1  0  0  0  0
  4  5  1  0  0  0  0
  5  6  1  0  0  0  0
  6  7  1  0  0  0  0
  7  8  1  0  0  0  0
  7  9  2  0  0  0  0
  9 10  1  0  0  0  0
 10 11  2  0  0  0  0
  2 11  1  0  0  0  0
  6 11  1  0  0  0  0
M  END
>  <Catalog ID>
Z104346682

>  <PlateID>
1198308-R-SPFL-13

>  <Well>
A05

>  <MW (desalted)>
150.221

>  <ClogP>
1.465

>  <HBD>
1

>  <TPSA>
16.960

>  <RotBonds>
0

$$$$

            

 12 12  0  0  0  0            999 V2000
    1.4289    3.3000    0.0000 C   0  0  0  0  0  0  0  0  0  0  0  0
    1.4289    2.4750    0.0000 C   0  0  0  0  0  0  0  0  0  0  0  0
    2.1434    2.0625    0.0000 C   0  0  0  0  0  0  0  0  0  0  0  0
    0.7145    2.0625    0.0000 C   0  0  0  0  0  0  0  0  0  0  0  0
    0.7145    1.2375    0.0000 N   0  0  0  0  0  0  0  0  0  0  0  0
    1.4289    0.8250    0.0000 C   0  0  0  0  0  0  0  0  0  0  0  0
    1.4289   -0.0000    0.0000 C   0  0  0  0  0  0  0  0  0  0  0  0
    0.7145   -0.4125    0.0000 O   0  0  0  0  0  0  0  0  0  0  0  0
    0.0000    0.0000    0.0000 C   0  0  0  0  0  0  0  0  0  0  0  0
   -0.7145   -0.4125    0.0000 C   0  0  0  0  0  0  0  0  0  0  0  0
   -0.7145   -1.2375    0.0000 O   0  0  0  0  0  0  0  0  0  0  0  0
    0.0000    0.8250    0.0000 C   0  0  0  0  0  0  0  0  0  0  0  0
  1  2  1  0  0  0  0
  2  3  1  0  0  0  0
  2  4  1  0  0  0  0
  4  5  1  0  0  0  0
  5  6  1  0  0  0  0
  6  7  1  0  0  0  0
  7  8  1  0  0  0  0
  8  9  1  0  0  0  0
  9 10  1  0  0  0  0
 10 11  1  0  0  0  0
  9 12  1  0  0  0  0
  5 12  1  0  0  0  0
M  END
>  <Catalog ID>
Z228586080

>  <PlateID>
1198308-R-SPFL-13

>  <Well>
A06

>  <MW (desalted)>
173.253

>  <ClogP>
0.936

>  <HBD>
1

>  <TPSA>
32.700

>  <RotBonds>
3

$$$$

            

 13 14  0  0  0  0            999 V2000
    1.4289   -1.6500    0.0000 C   0  0  0  0  0  0  0  0  0  0  0  0
    0.7145   -1.2375    0.0000 N   0  0  0  0  0  0  0  0  0  0  0  0
    0.7145   -0.4125    0.0000 C   0  0  0  0  0  0  0  0  0  0  0  0
    0.0000    0.0000    0.0000 C   0  0  0  0  0  0  0  0  0  0  0  0
    0.0000    0.8250    0.0000 C   0  0  0  0  0  0  0  0  0  0  0  0
    0.7145    1.2375    0.0000 C   0  0  0  0  0  0  0  0  0  0  0  0
    1.4289    0.8250    0.0000 C   0  0  0  0  0  0  0  0  0  0  0  0
    1.4289    0.0000    0.0000 C   0  0  0  0  0  0  0  0  0  0  0  0
    1.4289   -2.4750    0.0000 C   0  0  0  0  0  0  0  0  0  0  0  0
    2.0964   -2.9599    0.0000 C   0  0  0  0  0  0  0  0  0  0  0  0
    1.8414   -3.7445    0.0000 S   0  0  0  0  0  0  0  0  0  0  0  0
    1.0164   -3.7445    0.0000 C   0  0  0  0  0  0  0  0  0  0  0  0
    0.7615   -2.9599    0.0000 N   0  0  0  0  0  0  0  0  0  0  0  0
  1  2  1  0  0  0  0
  2  3  1  0  0  0  0
  3  4  2  0  0  0  0
  4  5  1  0  0  0  0
  5  6  2  0  0  0  0
  6  7  1  0  0  0  0
  7  8  2  0  0  0  0
  3  8  1  0  0  0  0
  1  9  1  0  0  0  0
  9 10  2  0  0  0  0
 10 11  1  0  0  0  0
 11 12  1  0  0  0  0
 12 13  2  0  0  0  0
  9 13  1  0  0  0  0
M  END
>  <Catalog ID>
Z137579644

>  <PlateID>
1198308-R-SPFL-13

>  <Well>
A07

>  <MW (desalted)>
190.265

>  <ClogP>
1.433

>  <HBD>
1

>  <TPSA>
24.920

>  <RotBonds>
3

$$$$

            

 11 12  0  0  0  0            999 V2000
    2.5645    2.4750    0.0000 C   0  0  0  0  0  0  0  0  0  0  0  0
    3.2789    2.0625    0.0000 O   0  0  0  0  0  0  0  0  0  0  0  0
    3.2789    1.2375    0.0000 C   0  0  0  0  0  0  0  0  0  0  0  0
    3.9934    0.8250    0.0000 C   0  0  0  0  0  0  0  0  0  0  0  0
    3.9934    0.0000    0.0000 C   0  0  0  0  0  0  0  0  0  0  0  0
    3.2789   -0.4125    0.0000 C   0  0  0  0  0  0  0  0  0  0  0  0
    2.5645    0.0000    0.0000 C   0  0  0  0  0  0  0  0  0  0  0  0
    1.7798   -0.2549    0.0000 S   0  0  0  0  0  0  0  0  0  0  0  0
    1.2949    0.4125    0.0000 C   0  0  0  0  0  0  0  0  0  0  0  0
    1.7798    1.0799    0.0000 N   0  0  0  0  0  0  0  0  0  0  0  0
    2.5645    0.8250    0.0000 C   0  0  0  0  0  0  0  0  0  0  0  0
  1  2  1  0  0  0  0
  2  3  1  0  0  0  0
  3  4  1  0  0  0  0
  4  5  2  0  0  0  0
  5  6  1  0  0  0  0
  6  7  2  0  0  0  0
  7  8  1  0  0  0  0
  8  9  1  0  0  0  0
  9 10  2  0  0  0  0
 10 11  1  0  0  0  0
  3 11  2  0  0  0  0
  7 11  1  0  0  0  0
M  END
>  <Catalog ID>
Z1255452697

>  <PlateID>
1198308-R-SPFL-13

>  <Well>
A08

>  <MW (desalted)>
165.212

>  <ClogP>
2.378

>  <HBD>
0

>  <TPSA>
22.120

>  <RotBonds>
1

$$$$

            

 14 14  0  0  0  0            999 V2000
    0.0000    0.0000    0.0000 Cl  0  0  0  0  0  0  0  0  0  0  0  0
    2.3571    2.3641    0.0000 N   0  0  0  0  0  0  0  0  0  0  0  0
    2.3571    1.5391    0.0000 C   0  0  0  0  0  0  0  0  0  0  0  0
    3.0716    1.1266    0.0000 C   0  0  0  0  0  0  0  0  0  0  0  0
    3.7861    1.5391    0.0000 C   0  0  0  0  0  0  0  0  0  0  0  0
    4.5006    1.1266    0.0000 C   0  0  0  0  0  0  0  0  0  0  0  0
    4.5006    0.3016    0.0000 C   0  0  0  0  0  0  0  0  0  0  0  0
    3.7861   -0.1109    0.0000 C   0  0  0  0  0  0  0  0  0  0  0  0
    3.0716    0.3016    0.0000 C   0  0  0  0  0  0  0  0  0  0  0  0
    3.7861   -0.9359    0.0000 N   0  0  0  0  0  0  0  0  0  0  0  0
    4.4535   -1.4208    0.0000 C   0  0  0  0  0  0  0  0  0  0  0  0
    4.1986   -2.2054    0.0000 C   0  0  0  0  0  0  0  0  0  0  0  0
    3.3736   -2.2054    0.0000 C   0  0  0  0  0  0  0  0  0  0  0  0
    3.1186   -1.4208    0.0000 N   0  0  0  0  0  0  0  0  0  0  0  0
  2  3  1  0  0  0  0
  3  4  1  0  0  0  0
  4  5  2  0  0  0  0
  5  6  1  0  0  0  0
  6  7  2  0  0  0  0
  7  8  1  0  0  0  0
  8  9  2  0  0  0  0
  4  9  1  0  0  0  0
  8 10  1  0  0  0  0
 10 11  1  0  0  0  0
 11 12  2  0  0  0  0
 12 13  1  0  0  0  0
 13 14  2  0  0  0  0
 10 14  1  0  0  0  0
M  END
>  <Catalog ID>
Z1270210783

>  <PlateID>
1198308-R-SPFL-13

>  <Well>
A09

>  <MW (desalted)>
173.214

>  <ClogP>
1.148

>  <HBD>
1

>  <TPSA>
43.840

>  <RotBonds>
2

$$$$

            

 10 10  0  0  0  0            999 V2000
    1.2822    2.3518    0.0000 C   0  0  0  0  0  0  0  0  0  0  0  0
    0.5678    1.9393    0.0000 C   0  0  0  0  0  0  0  0  0  0  0  0
   -0.1467    2.3518    0.0000 C   0  0  0  0  0  0  0  0  0  0  0  0
    0.5678    1.1143    0.0000 C   0  0  0  0  0  0  0  0  0  0  0  0
    1.2352    0.6294    0.0000 C   0  0  0  0  0  0  0  0  0  0  0  0
    0.9803   -0.1553    0.0000 C   0  0  0  0  0  0  0  0  0  0  0  0
    0.1553   -0.1553    0.0000 N   0  0  0  0  0  0  0  0  0  0  0  0
   -0.3297   -0.8227    0.0000 C   0  0  0  0  0  0  0  0  0  0  0  0
    0.0059   -1.5764    0.0000 O   0  0  0  0  0  0  0  0  0  0  0  0
   -0.0997    0.6294    0.0000 N   0  0  0  0  0  0  0  0  0  0  0  0
  1  2  1  0  0  0  0
  2  3  1  0  0  0  0
  2  4  1  0  0  0  0
  4  5  1  0  0  0  0
  5  6  2  0  0  0  0
  6  7  1  0  0  0  0
  7  8  1  0  0  0  0
  8  9  1  0  0  0  0
  7 10  1  0  0  0  0
  4 10  2  0  0  0  0
M  END
>  <Catalog ID>
Z1898574828

>  <PlateID>
1198308-R-SPFL-13

>  <Well>
A10

>  <MW (desalted)>
140.183

>  <ClogP>
0.699

>  <HBD>
1

>  <TPSA>
38.050

>  <RotBonds>
2

$$$$

            

 12 12  0  0  0  0            999 V2000
    0.0000    0.0000    0.0000 Cl  0  0  0  0  0  0  0  0  0  0  0  0
    3.8697    1.5750    0.0000 C   0  0  0  0  0  0  0  0  0  0  0  0
    3.8697    0.7500    0.0000 C   0  0  0  0  0  0  0  0  0  0  0  0
    4.5842    0.3375    0.0000 C   0  0  0  0  0  0  0  0  0  0  0  0
    4.5842   -0.4875    0.0000 C   0  0  0  0  0  0  0  0  0  0  0  0
    5.2987   -0.9000    0.0000 N   0  0  0  0  0  0  0  0  0  0  0  0
    3.8697   -0.9000    0.0000 C   0  0  0  0  0  0  0  0  0  0  0  0
    3.1553   -0.4875    0.0000 N   0  0  0  0  0  0  0  0  0  0  0  0
    2.3706   -0.7424    0.0000 C   0  0  0  0  0  0  0  0  0  0  0  0
    1.8857   -0.0750    0.0000 C   0  0  0  0  0  0  0  0  0  0  0  0
    2.3706    0.5924    0.0000 N   0  0  0  0  0  0  0  0  0  0  0  0
    3.1553    0.3375    0.0000 C   0  0  0  0  0  0  0  0  0  0  0  0
  2  3  1  0  0  0  0
  3  4  2  0  0  0  0
  4  5  1  0  0  0  0
  5  6  1  0  0  0  0
  5  7  2  0  0  0  0
  7  8  1  0  0  0  0
  8  9  1  0  0  0  0
  9 10  2  0  0  0  0
 10 11  1  0  0  0  0
 11 12  2  0  0  0  0
  3 12  1  0  0  0  0
  8 12  1  0  0  0  0
M  END
>  <Catalog ID>
Z2216711590

>  <PlateID>
1198308-R-SPFL-13

>  <Well>
A11

>  <MW (desalted)>
147.177

>  <ClogP>
1.378

>  <HBD>
1

>  <TPSA>
43.320

>  <RotBonds>
0

$$$$

            

 11 12  0  0  0  0            999 V2000
    0.0768   -2.3215    0.0000 O   0  0  0  0  0  0  0  0  0  0  0  0
    0.8838   -2.1500    0.0000 C   0  0  0  0  0  0  0  0  0  0  0  0
    1.1387   -1.3654    0.0000 C   0  0  0  0  0  0  0  0  0  0  0  0
    0.6538   -0.6979    0.0000 C   0  0  0  0  0  0  0  0  0  0  0  0
    1.1387   -0.0305    0.0000 S   0  0  0  0  0  0  0  0  0  0  0  0
    1.9233   -0.2854    0.0000 C   0  0  0  0  0  0  0  0  0  0  0  0
    2.6378    0.1271    0.0000 C   0  0  0  0  0  0  0  0  0  0  0  0
    3.3523   -0.2854    0.0000 C   0  0  0  0  0  0  0  0  0  0  0  0
    3.3523   -1.1104    0.0000 C   0  0  0  0  0  0  0  0  0  0  0  0
    2.6378   -1.5229    0.0000 C   0  0  0  0  0  0  0  0  0  0  0  0
    1.9233   -1.1104    0.0000 C   0  0  0  0  0  0  0  0  0  0  0  0
  1  2  1  0  0  0  0
  2  3  1  0  0  0  0
  3  4  1  0  0  0  0
  4  5  1  0  0  0  0
  5  6  1  0  0  0  0
  6  7  2  0  0  0  0
  7  8  1  0  0  0  0
  8  9  2  0  0  0  0
  9 10  1  0  0  0  0
 10 11  2  0  0  0  0
  3 11  1  0  0  0  0
  6 11  1  0  0  0  0
M  END
>  <Catalog ID>
Z1316761281

>  <PlateID>
1198308-R-SPFL-13

>  <Well>
B02

>  <MW (desalted)>
166.240

>  <ClogP>
1.368

>  <HBD>
1

>  <TPSA>
20.230

>  <RotBonds>
1

$$$$

            

 11 12  0  0  0  0            999 V2000
    3.1187    1.1270    0.0000 O   0  0  0  0  0  0  0  0  0  0  0  0
    2.7062    0.4125    0.0000 C   0  0  0  0  0  0  0  0  0  0  0  0
    3.1187   -0.3020    0.0000 O   0  0  0  0  0  0  0  0  0  0  0  0
    1.8812    0.4125    0.0000 C   0  0  0  0  0  0  0  0  0  0  0  0
    1.2978   -0.1709    0.0000 C   0  0  0  0  0  0  0  0  0  0  0  0
    0.7145    0.4125    0.0000 C   0  0  0  0  0  0  0  0  0  0  0  0
   -0.0000    0.0000    0.0000 C   0  0  0  0  0  0  0  0  0  0  0  0
    0.0000    0.8250    0.0000 C   0  0  0  0  0  0  0  0  0  0  0  0
   -0.7477    1.1737    0.0000 F   0  0  0  0  0  0  0  0  0  0  0  0
    0.0719    1.6469    0.0000 F   0  0  0  0  0  0  0  0  0  0  0  0
    1.2978    0.9959    0.0000 C   0  0  0  0  0  0  0  0  0  0  0  0
  1  2  1  0  0  0  0
  2  3  2  0  0  0  0
  2  4  1  0  0  0  0
  4  5  1  0  0  0  0
  5  6  1  0  0  0  0
  6  7  1  0  0  0  0
  7  8  1  0  0  0  0
  6  8  1  0  0  0  0
  8  9  1  0  0  0  0
  8 10  1  0  0  0  0
  6 11  1  0  0  0  0
  4 11  1  0  0  0  0
M  END
>  <Catalog ID>
Z2489675026

>  <PlateID>
1198308-R-SPFL-13

>  <Well>
B03

>  <MW (desalted)>
162.134

>  <ClogP>
0.419

>  <HBD>
1

>  <TPSA>
37.300

>  <RotBonds>
1

$$$$

            

 14 15  0  0  0  0            999 V2000
    0.7145   -0.4125    0.0000 F   0  0  0  0  0  0  0  0  0  0  0  0
    0.7145   -1.2375    0.0000 C   0  0  0  0  0  0  0  0  0  0  0  0
    1.4289   -1.6500    0.0000 C   0  0  0  0  0  0  0  0  0  0  0  0
    1.4289   -2.4750    0.0000 C   0  0  0  0  0  0  0  0  0  0  0  0
    0.7145   -2.8875    0.0000 C   0  0  0  0  0  0  0  0  0  0  0  0
    0.0000   -2.4750    0.0000 C   0  0  0  0  0  0  0  0  0  0  0  0
    0.0000   -1.6500    0.0000 C   0  0  0  0  0  0  0  0  0  0  0  0
    0.7145   -3.7125    0.0000 C   0  0  0  0  0  0  0  0  0  0  0  0
    1.4289   -4.1250    0.0000 N   0  0  0  0  0  0  0  0  0  0  0  0
    1.4289   -4.9500    0.0000 N   0  0  0  0  0  0  0  0  0  0  0  0
    0.7145   -5.3625    0.0000 C   0  0  0  0  0  0  0  0  0  0  0  0
    0.7145   -6.1875    0.0000 O   0  0  0  0  0  0  0  0  0  0  0  0
    0.0000   -4.9500    0.0000 C   0  0  0  0  0  0  0  0  0  0  0  0
    0.0000   -4.1250    0.0000 C   0  0  0  0  0  0  0  0  0  0  0  0
  1  2  1  0  0  0  0
  2  3  2  0  0  0  0
  3  4  1  0  0  0  0
  4  5  2  0  0  0  0
  5  6  1  0  0  0  0
  6  7  2  0  0  0  0
  2  7  1  0  0  0  0
  5  8  1  0  0  0  0
  8  9  2  0  0  0  0
  9 10  1  0  0  0  0
 10 11  1  0  0  0  0
 11 12  2  0  0  0  0
 11 13  1  0  0  0  0
 13 14  1  0  0  0  0
  8 14  1  0  0  0  0
M  END
>  <Catalog ID>
Z48957541

>  <PlateID>
1198308-R-SPFL-13

>  <Well>
B04

>  <MW (desalted)>
192.190

>  <ClogP>
0.986

>  <HBD>
1

>  <TPSA>
41.460

>  <RotBonds>
1

$$$$

            

 15 15  0  0  0  0            999 V2000
    0.0000    0.0000    0.0000 Cl  0  0  0  0  0  0  0  0  0  0  0  0
    5.4581    1.5911    0.0000 N   0  0  0  0  0  0  0  0  0  0  0  0
    5.4581    0.7661    0.0000 C   0  0  0  0  0  0  0  0  0  0  0  0
    6.1725    0.3536    0.0000 C   0  0  0  0  0  0  0  0  0  0  0  0
    6.1725   -0.4714    0.0000 C   0  0  0  0  0  0  0  0  0  0  0  0
    5.4581   -0.8839    0.0000 C   0  0  0  0  0  0  0  0  0  0  0  0
    4.7436   -0.4714    0.0000 N   0  0  0  0  0  0  0  0  0  0  0  0
    4.0291   -0.8839    0.0000 C   0  0  0  0  0  0  0  0  0  0  0  0
    3.3147   -0.4714    0.0000 C   0  0  0  0  0  0  0  0  0  0  0  0
    2.6002   -0.8839    0.0000 C   0  0  0  0  0  0  0  0  0  0  0  0
    1.8857   -0.4714    0.0000 C   0  0  0  0  0  0  0  0  0  0  0  0
    1.8857    0.3536    0.0000 C   0  0  0  0  0  0  0  0  0  0  0  0
    2.6002    0.7661    0.0000 C   0  0  0  0  0  0  0  0  0  0  0  0
    3.3147    0.3536    0.0000 C   0  0  0  0  0  0  0  0  0  0  0  0
    4.7436    0.3536    0.0000 C   0  0  0  0  0  0  0  0  0  0  0  0
  2  3  1  0  0  0  0
  3  4  1  0  0  0  0
  4  5  1  0  0  0  0
  5  6  1  0  0  0  0
  6  7  1  0  0  0  0
  7  8  1  0  0  0  0
  8  9  1  0  0  0  0
  9 10  2  0  0  0  0
 10 11  1  0  0  0  0
 11 12  2  0  0  0  0
 12 13  1  0  0  0  0
 13 14  2  0  0  0  0
  9 14  1  0  0  0  0
  7 15  1  0  0  0  0
  3 15  1  0  0  0  0
M  END
>  <Catalog ID>
Z1270443557

>  <PlateID>
1198308-R-SPFL-13

>  <Well>
B05

>  <MW (desalted)>
190.285

>  <ClogP>
1.992

>  <HBD>
1

>  <TPSA>
29.260

>  <RotBonds>
2

$$$$

            

 15 16  0  0  0  0            999 V2000
   -0.0980   -0.5558    0.0000 O   0  0  0  0  0  0  0  0  0  0  0  0
    0.7145   -0.4125    0.0000 C   0  0  0  0  0  0  0  0  0  0  0  0
    0.9966    0.3627    0.0000 O   0  0  0  0  0  0  0  0  0  0  0  0
    1.2448   -1.0445    0.0000 C   0  0  0  0  0  0  0  0  0  0  0  0
    1.9592   -1.4570    0.0000 C   0  0  0  0  0  0  0  0  0  0  0  0
    1.9592   -2.2820    0.0000 C   0  0  0  0  0  0  0  0  0  0  0  0
    1.2448   -2.6945    0.0000 C   0  0  0  0  0  0  0  0  0  0  0  0
    0.5303   -2.2820    0.0000 C   0  0  0  0  0  0  0  0  0  0  0  0
    0.5303   -1.4570    0.0000 C   0  0  0  0  0  0  0  0  0  0  0  0
    1.7751   -0.4125    0.0000 C   0  0  0  0  0  0  0  0  0  0  0  0
    1.4929    0.3627    0.0000 C   0  0  0  0  0  0  0  0  0  0  0  0
    2.0232    0.9947    0.0000 C   0  0  0  0  0  0  0  0  0  0  0  0
    2.8357    0.8515    0.0000 C   0  0  0  0  0  0  0  0  0  0  0  0
    3.1178    0.0762    0.0000 N   0  0  0  0  0  0  0  0  0  0  0  0
    2.5875   -0.5558    0.0000 C   0  0  0  0  0  0  0  0  0  0  0  0
  1  2  1  0  0  0  0
  2  3  2  0  0  0  0
  2  4  1  0  0  0  0
  4  5  1  0  0  0  0
  5  6  1  0  0  0  0
  6  7  1  0  0  0  0
  7  8  1  0  0  0  0
  8  9  1  0  0  0  0
  4  9  1  0  0  0  0
  4 10  1  0  0  0  0
 10 11  2  0  0  0  0
 11 12  1  0  0  0  0
 12 13  2  0  0  0  0
 13 14  1  0  0  0  0
 14 15  2  0  0  0  0
 10 15  1  0  0  0  0
M  END
>  <Catalog ID>
Z1410957296

>  <PlateID>
1198308-R-SPFL-13

>  <Well>
B06

>  <MW (desalted)>
205.253

>  <ClogP>
1.938

>  <HBD>
1

>  <TPSA>
50.190

>  <RotBonds>
2

$$$$

            

 11 11  0  0  0  0            999 V2000
    0.0000    2.4750    0.0000 C   0  0  0  0  0  0  0  0  0  0  0  0
    0.7145    2.0625    0.0000 O   0  0  0  0  0  0  0  0  0  0  0  0
    0.7145    1.2375    0.0000 C   0  0  0  0  0  0  0  0  0  0  0  0
    1.4289    0.8250    0.0000 C   0  0  0  0  0  0  0  0  0  0  0  0
    1.4289   -0.0000    0.0000 C   0  0  0  0  0  0  0  0  0  0  0  0
    0.7145   -0.4125    0.0000 C   0  0  0  0  0  0  0  0  0  0  0  0
    0.7145   -1.2375    0.0000 Cl  0  0  0  0  0  0  0  0  0  0  0  0
    0.0000    0.0000    0.0000 C   0  0  0  0  0  0  0  0  0  0  0  0
    0.0000    0.8250    0.0000 C   0  0  0  0  0  0  0  0  0  0  0  0
   -0.7145    1.2375    0.0000 C   0  0  0  0  0  0  0  0  0  0  0  0
   -0.7145    2.0625    0.0000 O   0  0  0  0  0  0  0  0  0  0  0  0
  1  2  1  0  0  0  0
  2  3  1  0  0  0  0
  3  4  2  0  0  0  0
  4  5  1  0  0  0  0
  5  6  2  0  0  0  0
  6  7  1  0  0  0  0
  6  8  1  0  0  0  0
  8  9  2  0  0  0  0
  3  9  1  0  0  0  0
  9 10  1  0  0  0  0
 10 11  1  0  0  0  0
M  END
>  <Catalog ID>
Z381396392

>  <PlateID>
1198308-R-SPFL-13

>  <Well>
B07

>  <MW (desalted)>
172.609

>  <ClogP>
1.876

>  <HBD>
1

>  <TPSA>
29.460

>  <RotBonds>
2

$$$$

            

 14 15  0  0  0  0            999 V2000
    0.0000   -1.6500    0.0000 C   0  0  0  0  0  0  0  0  0  0  0  0
    0.7145   -1.2375    0.0000 C   0  0  0  0  0  0  0  0  0  0  0  0
    0.7145   -0.4125    0.0000 C   0  0  0  0  0  0  0  0  0  0  0  0
    1.4289    0.0000    0.0000 C   0  0  0  0  0  0  0  0  0  0  0  0
    1.4289    0.8250    0.0000 C   0  0  0  0  0  0  0  0  0  0  0  0
    2.1434    1.2375    0.0000 O   0  0  0  0  0  0  0  0  0  0  0  0
    0.7145    1.2375    0.0000 N   0  0  0  0  0  0  0  0  0  0  0  0
    2.1434   -0.4125    0.0000 C   0  0  0  0  0  0  0  0  0  0  0  0
    2.8579    0.0000    0.0000 C   0  0  0  0  0  0  0  0  0  0  0  0
    3.5724   -0.4125    0.0000 C   0  0  0  0  0  0  0  0  0  0  0  0
    3.5724   -1.2375    0.0000 C   0  0  0  0  0  0  0  0  0  0  0  0
    2.8579   -1.6500    0.0000 C   0  0  0  0  0  0  0  0  0  0  0  0
    2.1434   -1.2375    0.0000 C   0  0  0  0  0  0  0  0  0  0  0  0
    1.4289   -1.6500    0.0000 N   0  0  0  0  0  0  0  0  0  0  0  0
  1  2  1  0  0  0  0
  2  3  1  0  0  0  0
  3  4  2  0  0  0  0
  4  5  1  0  0  0  0
  5  6  2  0  0  0  0
  5  7  1  0  0  0  0
  4  8  1  0  0  0  0
  8  9  2  0  0  0  0
  9 10  1  0  0  0  0
 10 11  2  0  0  0  0
 11 12  1  0  0  0  0
 12 13  2  0  0  0  0
  8 13  1  0  0  0  0
 13 14  1  0  0  0  0
  2 14  2  0  0  0  0
M  END
>  <Catalog ID>
Z33546322

>  <PlateID>
1198308-R-SPFL-13

>  <Well>
B08

>  <MW (desalted)>
186.210

>  <ClogP>
1.677

>  <HBD>
1

>  <TPSA>
55.980

>  <RotBonds>
1

$$$$

            

 13 13  0  0  0  0            999 V2000
    0.0000    0.0000    0.0000 Cl  0  0  0  0  0  0  0  0  0  0  0  0
    1.7679   -0.7563    0.0000 F   0  0  0  0  0  0  0  0  0  0  0  0
    2.4823   -0.3438    0.0000 C   0  0  0  0  0  0  0  0  0  0  0  0
    2.4823    0.4813    0.0000 C   0  0  0  0  0  0  0  0  0  0  0  0
    3.1968    0.8938    0.0000 C   0  0  0  0  0  0  0  0  0  0  0  0
    3.9113    0.4813    0.0000 C   0  0  0  0  0  0  0  0  0  0  0  0
    4.5563    0.9956    0.0000 S   0  0  0  0  0  0  0  0  0  0  0  0
    5.3606    0.8120    0.0000 C   0  0  0  0  0  0  0  0  0  0  0  0
    5.7186    0.0688    0.0000 C   0  0  0  0  0  0  0  0  0  0  0  0
    5.3606   -0.6745    0.0000 C   0  0  0  0  0  0  0  0  0  0  0  0
    4.5563   -0.8581    0.0000 N   0  0  0  0  0  0  0  0  0  0  0  0
    3.9113   -0.3437    0.0000 C   0  0  0  0  0  0  0  0  0  0  0  0
    3.1968   -0.7563    0.0000 C   0  0  0  0  0  0  0  0  0  0  0  0
  2  3  1  0  0  0  0
  3  4  2  0  0  0  0
  4  5  1  0  0  0  0
  5  6  2  0  0  0  0
  6  7  1  0  0  0  0
  7  8  1  0  0  0  0
  8  9  1  0  0  0  0
  9 10  1  0  0  0  0
 10 11  1  0  0  0  0
 11 12  1  0  0  0  0
  6 12  1  0  0  0  0
 12 13  2  0  0  0  0
  3 13  1  0  0  0  0
M  END
>  <Catalog ID>
Z1809367941

>  <PlateID>
1198308-R-SPFL-13

>  <Well>
B09

>  <MW (desalted)>
183.246

>  <ClogP>
2.737

>  <HBD>
1

>  <TPSA>
12.030

>  <RotBonds>
0

$$$$

            

  0  0  0     0  0            999 V3000
M  V30 BEGIN CTAB
M  V30 COUNTS 14 14 0 0 0
M  V30 BEGIN ATOM
M  V30 1 Cl 0 0 0 0
M  V30 2 N 9.6247 3.869 0 0
M  V30 3 C 8.291 3.099 0 0
M  V30 4 C 8.291 1.559 0 0 CFG=2
M  V30 5 C 9.061 0.2253 0 0
M  V30 6 C 7.521 0.2253 0 0 CFG=1
M  V30 7 C 6.1874 -0.5447 0 0
M  V30 8 C 6.1874 -2.0847 0 0
M  V30 9 F 7.521 -2.8547 0 0
M  V30 10 C 4.8537 -2.8547 0 0
M  V30 11 C 3.52 -2.0847 0 0
M  V30 12 C 3.52 -0.5447 0 0
M  V30 13 C 4.8537 0.2253 0 0
M  V30 14 F 4.8537 1.7653 0 0
M  V30 END ATOM
M  V30 BEGIN BOND
M  V30 1 1 2 3
M  V30 2 1 4 3 CFG=3
M  V30 3 1 4 5
M  V30 4 1 6 5
M  V30 5 1 4 6
M  V30 6 1 6 7 CFG=1
M  V30 7 2 7 8
M  V30 8 1 8 9
M  V30 9 1 8 10
M  V30 10 2 10 11
M  V30 11 1 11 12
M  V30 12 2 12 13
M  V30 13 1 7 13
M  V30 14 1 13 14
M  V30 END BOND
M  V30 BEGIN COLLECTION
M  V30 MDLV30/STERAC1 ATOMS=(2 4 6)
M  V30 END COLLECTION
M  V30 END CTAB
M  END
>  <Catalog ID>
Z2298098007

>  <PlateID>
1198308-R-SPFL-13

>  <Well>
B10

>  <MW (desalted)>
183.198

>  <ClogP>
2.003

>  <HBD>
1

>  <TPSA>
26.020

>  <RotBonds>
2

$$$$

            

 15 16  0  0  0  0            999 V2000
    1.4289   -1.6500    0.0000 O   0  0  0  0  0  0  0  0  0  0  0  0
    1.4289   -2.4750    0.0000 C   0  0  0  0  0  0  0  0  0  0  0  0
    2.0964   -2.9599    0.0000 N   0  0  0  0  0  0  0  0  0  0  0  0
    1.8414   -3.7445    0.0000 C   0  0  0  0  0  0  0  0  0  0  0  0
    2.3264   -4.4120    0.0000 C   0  0  0  0  0  0  0  0  0  0  0  0
    3.1468   -4.3257    0.0000 C   0  0  0  0  0  0  0  0  0  0  0  0
    3.6318   -4.9932    0.0000 C   0  0  0  0  0  0  0  0  0  0  0  0
    4.4522   -4.9070    0.0000 C   0  0  0  0  0  0  0  0  0  0  0  0
    4.9372   -5.5744    0.0000 C   0  0  0  0  0  0  0  0  0  0  0  0
    4.6016   -6.3281    0.0000 C   0  0  0  0  0  0  0  0  0  0  0  0
    3.7811   -6.4143    0.0000 C   0  0  0  0  0  0  0  0  0  0  0  0
    3.2962   -5.7469    0.0000 C   0  0  0  0  0  0  0  0  0  0  0  0
    1.0164   -3.7445    0.0000 C   0  0  0  0  0  0  0  0  0  0  0  0
    0.5315   -4.4120    0.0000 O   0  0  0  0  0  0  0  0  0  0  0  0
    0.7615   -2.9599    0.0000 N   0  0  0  0  0  0  0  0  0  0  0  0
  1  2  2  0  0  0  0
  2  3  1  0  0  0  0
  3  4  1  0  0  0  0
  4  5  1  0  0  0  0
  5  6  1  0  0  0  0
  6  7  1  0  0  0  0
  7  8  2  0  0  0  0
  8  9  1  0  0  0  0
  9 10  2  0  0  0  0
 10 11  1  0  0  0  0
 11 12  2  0  0  0  0
  7 12  1  0  0  0  0
  4 13  1  0  0  0  0
 13 14  2  0  0  0  0
 13 15  1  0  0  0  0
  2 15  1  0  0  0  0
M  END
>  <Catalog ID>
Z56896788

>  <PlateID>
1198308-R-SPFL-13

>  <Well>
B11

>  <MW (desalted)>
204.225

>  <ClogP>
0.775

>  <HBD>
2

>  <TPSA>
58.200

>  <RotBonds>
3

$$$$

            

 12 13  0  0  0  0            999 V2000
    0.7145   -0.4125    0.0000 N   0  0  0  0  0  0  0  0  0  0  0  0
    0.7145   -1.2375    0.0000 C   0  0  0  0  0  0  0  0  0  0  0  0
    1.3819   -1.7224    0.0000 C   0  0  0  0  0  0  0  0  0  0  0  0
    1.1270   -2.5070    0.0000 C   0  0  0  0  0  0  0  0  0  0  0  0
    0.3020   -2.5070    0.0000 N   0  0  0  0  0  0  0  0  0  0  0  0
    0.0470   -1.7224    0.0000 O   0  0  0  0  0  0  0  0  0  0  0  0
    1.6119   -3.1745    0.0000 C   0  0  0  0  0  0  0  0  0  0  0  0
    2.4324   -3.0882    0.0000 C   0  0  0  0  0  0  0  0  0  0  0  0
    2.9173   -3.7557    0.0000 C   0  0  0  0  0  0  0  0  0  0  0  0
    2.5817   -4.5094    0.0000 C   0  0  0  0  0  0  0  0  0  0  0  0
    1.7613   -4.5956    0.0000 C   0  0  0  0  0  0  0  0  0  0  0  0
    1.2763   -3.9282    0.0000 C   0  0  0  0  0  0  0  0  0  0  0  0
  1  2  1  0  0  0  0
  2  3  2  0  0  0  0
  3  4  1  0  0  0  0
  4  5  2  0  0  0  0
  5  6  1  0  0  0  0
  2  6  1  0  0  0  0
  4  7  1  0  0  0  0
  7  8  1  0  0  0  0
  8  9  1  0  0  0  0
  9 10  1  0  0  0  0
 10 11  1  0  0  0  0
 11 12  1  0  0  0  0
  7 12  1  0  0  0  0
M  END
>  <Catalog ID>
Z360168606

>  <PlateID>
1198308-R-SPFL-13

>  <Well>
C02

>  <MW (desalted)>
166.220

>  <ClogP>
2.159

>  <HBD>
1

>  <TPSA>
52.050

>  <RotBonds>
1

$$$$

            

 10 10  0  0  0  0            999 V2000
    1.2822    2.3518    0.0000 C   0  0  0  0  0  0  0  0  0  0  0  0
    0.5678    1.9393    0.0000 C   0  0  0  0  0  0  0  0  0  0  0  0
   -0.1467    2.3518    0.0000 C   0  0  0  0  0  0  0  0  0  0  0  0
    0.5678    1.1143    0.0000 C   0  0  0  0  0  0  0  0  0  0  0  0
    1.2352    0.6294    0.0000 N   0  0  0  0  0  0  0  0  0  0  0  0
    0.9803   -0.1553    0.0000 O   0  0  0  0  0  0  0  0  0  0  0  0
    0.1553   -0.1553    0.0000 C   0  0  0  0  0  0  0  0  0  0  0  0
   -0.3297   -0.8227    0.0000 C   0  0  0  0  0  0  0  0  0  0  0  0
    0.0059   -1.5764    0.0000 O   0  0  0  0  0  0  0  0  0  0  0  0
   -0.0997    0.6294    0.0000 N   0  0  0  0  0  0  0  0  0  0  0  0
  1  2  1  0  0  0  0
  2  3  1  0  0  0  0
  2  4  1  0  0  0  0
  4  5  2  0  0  0  0
  5  6  1  0  0  0  0
  6  7  1  0  0  0  0
  7  8  1  0  0  0  0
  8  9  1  0  0  0  0
  7 10  2  0  0  0  0
  4 10  1  0  0  0  0
M  END
>  <Catalog ID>
Z431952890

>  <PlateID>
1198308-R-SPFL-13

>  <Well>
C03

>  <MW (desalted)>
142.156

>  <ClogP>
-0.347

>  <HBD>
1

>  <TPSA>
59.150

>  <RotBonds>
2

$$$$

            

 11 12  0  0  0  0            999 V2000
    1.1270   -2.5070    0.0000 C   0  0  0  0  0  0  0  0  0  0  0  0
    0.3020   -2.5070    0.0000 C   0  0  0  0  0  0  0  0  0  0  0  0
    0.0470   -1.7224    0.0000 O   0  0  0  0  0  0  0  0  0  0  0  0
    0.7145   -1.2375    0.0000 C   0  0  0  0  0  0  0  0  0  0  0  0
    1.3819   -1.7224    0.0000 N   0  0  0  0  0  0  0  0  0  0  0  0
    0.7145   -0.4125    0.0000 C   0  0  0  0  0  0  0  0  0  0  0  0
    0.0000    0.0000    0.0000 C   0  0  0  0  0  0  0  0  0  0  0  0
    0.0000    0.8250    0.0000 C   0  0  0  0  0  0  0  0  0  0  0  0
    0.7145    1.2375    0.0000 C   0  0  0  0  0  0  0  0  0  0  0  0
    1.4289    0.8250    0.0000 N   0  0  0  0  0  0  0  0  0  0  0  0
    1.4289   -0.0000    0.0000 C   0  0  0  0  0  0  0  0  0  0  0  0
  1  2  2  0  0  0  0
  2  3  1  0  0  0  0
  3  4  1  0  0  0  0
  4  5  2  0  0  0  0
  1  5  1  0  0  0  0
  4  6  1  0  0  0  0
  6  7  2  0  0  0  0
  7  8  1  0  0  0  0
  8  9  2  0  0  0  0
  9 10  1  0  0  0  0
 10 11  2  0  0  0  0
  6 11  1  0  0  0  0
M  END
>  <Catalog ID>
Z1255505025

>  <PlateID>
1198308-R-SPFL-13

>  <Well>
C04

>  <MW (desalted)>
146.146

>  <ClogP>
0.530

>  <HBD>
0

>  <TPSA>
38.920

>  <RotBonds>
1

$$$$

            

 11 12  0  0  0  0            999 V2000
    1.1270   -2.5070    0.0000 C   0  0  0  0  0  0  0  0  0  0  0  0
    0.3020   -2.5070    0.0000 C   0  0  0  0  0  0  0  0  0  0  0  0
    0.0470   -1.7224    0.0000 O   0  0  0  0  0  0  0  0  0  0  0  0
    0.7145   -1.2375    0.0000 C   0  0  0  0  0  0  0  0  0  0  0  0
    1.3819   -1.7224    0.0000 N   0  0  0  0  0  0  0  0  0  0  0  0
    0.7145   -0.4125    0.0000 C   0  0  0  0  0  0  0  0  0  0  0  0
    0.0000    0.0000    0.0000 C   0  0  0  0  0  0  0  0  0  0  0  0
    0.0000    0.8250    0.0000 C   0  0  0  0  0  0  0  0  0  0  0  0
    0.7145    1.2375    0.0000 N   0  0  0  0  0  0  0  0  0  0  0  0
    1.4289    0.8250    0.0000 C   0  0  0  0  0  0  0  0  0  0  0  0
    1.4289   -0.0000    0.0000 C   0  0  0  0  0  0  0  0  0  0  0  0
  1  2  2  0  0  0  0
  2  3  1  0  0  0  0
  3  4  1  0  0  0  0
  4  5  2  0  0  0  0
  1  5  1  0  0  0  0
  4  6  1  0  0  0  0
  6  7  2  0  0  0  0
  7  8  1  0  0  0  0
  8  9  2  0  0  0  0
  9 10  1  0  0  0  0
 10 11  2  0  0  0  0
  6 11  1  0  0  0  0
M  END
>  <Catalog ID>
Z1255488217

>  <PlateID>
1198308-R-SPFL-13

>  <Well>
C05

>  <MW (desalted)>
146.146

>  <ClogP>
0.530

>  <HBD>
0

>  <TPSA>
38.920

>  <RotBonds>
1

$$$$

            

 11 12  0  0  0  0            999 V2000
    3.2789    2.0625    0.0000 C   0  0  0  0  0  0  0  0  0  0  0  0
    3.2789    1.2375    0.0000 C   0  0  0  0  0  0  0  0  0  0  0  0
    3.9934    0.8250    0.0000 C   0  0  0  0  0  0  0  0  0  0  0  0
    3.9934    0.0000    0.0000 C   0  0  0  0  0  0  0  0  0  0  0  0
    3.2789   -0.4125    0.0000 C   0  0  0  0  0  0  0  0  0  0  0  0
    2.5645    0.0000    0.0000 C   0  0  0  0  0  0  0  0  0  0  0  0
    1.7798   -0.2549    0.0000 O   0  0  0  0  0  0  0  0  0  0  0  0
    1.2949    0.4125    0.0000 N   0  0  0  0  0  0  0  0  0  0  0  0
    1.7798    1.0799    0.0000 C   0  0  0  0  0  0  0  0  0  0  0  0
    1.5249    1.8646    0.0000 N   0  0  0  0  0  0  0  0  0  0  0  0
    2.5645    0.8250    0.0000 C   0  0  0  0  0  0  0  0  0  0  0  0
  1  2  1  0  0  0  0
  2  3  1  0  0  0  0
  3  4  2  0  0  0  0
  4  5  1  0  0  0  0
  5  6  2  0  0  0  0
  6  7  1  0  0  0  0
  7  8  1  0  0  0  0
  8  9  2  0  0  0  0
  9 10  1  0  0  0  0
  9 11  1  0  0  0  0
  2 11  2  0  0  0  0
  6 11  1  0  0  0  0
M  END
>  <Catalog ID>
Z1203653600

>  <PlateID>
1198308-R-SPFL-13

>  <Well>
C06

>  <MW (desalted)>
148.162

>  <ClogP>
1.652

>  <HBD>
1

>  <TPSA>
52.050

>  <RotBonds>
0

$$$$

            

 13 14  0  0  0  0            999 V2000
    0.7145   -0.4125    0.0000 N   0  0  0  0  0  0  0  0  0  0  0  0
    0.7145   -1.2375    0.0000 C   0  0  0  0  0  0  0  0  0  0  0  0
    1.4289   -1.6500    0.0000 N   0  0  0  0  0  0  0  0  0  0  0  0
    1.4289   -2.4750    0.0000 C   0  0  0  0  0  0  0  0  0  0  0  0
    0.7145   -2.8875    0.0000 N   0  0  0  0  0  0  0  0  0  0  0  0
    0.0000   -2.4750    0.0000 C   0  0  0  0  0  0  0  0  0  0  0  0
    0.0000   -1.6500    0.0000 C   0  0  0  0  0  0  0  0  0  0  0  0
   -0.7145   -1.2375    0.0000 C   0  0  0  0  0  0  0  0  0  0  0  0
   -1.4289   -1.6500    0.0000 C   0  0  0  0  0  0  0  0  0  0  0  0
   -2.1434   -1.2375    0.0000 C   0  0  0  0  0  0  0  0  0  0  0  0
   -2.1434   -0.4125    0.0000 C   0  0  0  0  0  0  0  0  0  0  0  0
   -1.4289    0.0000    0.0000 C   0  0  0  0  0  0  0  0  0  0  0  0
   -0.7145   -0.4125    0.0000 C   0  0  0  0  0  0  0  0  0  0  0  0
  1  2  1  0  0  0  0
  2  3  2  0  0  0  0
  3  4  1  0  0  0  0
  4  5  2  0  0  0  0
  5  6  1  0  0  0  0
  6  7  2  0  0  0  0
  2  7  1  0  0  0  0
  7  8  1  0  0  0  0
  8  9  2  0  0  0  0
  9 10  1  0  0  0  0
 10 11  2  0  0  0  0
 11 12  1  0  0  0  0
 12 13  2  0  0  0  0
  8 13  1  0  0  0  0
M  END
>  <Catalog ID>
Z1020823052

>  <PlateID>
1198308-R-SPFL-13

>  <Well>
C07

>  <MW (desalted)>
171.199

>  <ClogP>
1.564

>  <HBD>
1

>  <TPSA>
51.800

>  <RotBonds>
1

$$$$

            

 14 15  0  0  0  0            999 V2000
    1.3222    5.5902    0.0000 O   0  0  0  0  0  0  0  0  0  0  0  0
    1.3222    4.7652    0.0000 C   0  0  0  0  0  0  0  0  0  0  0  0
    0.6078    4.3527    0.0000 O   0  0  0  0  0  0  0  0  0  0  0  0
    2.0367    4.3527    0.0000 C   0  0  0  0  0  0  0  0  0  0  0  0
    2.7512    4.7652    0.0000 C   0  0  0  0  0  0  0  0  0  0  0  0
    3.4656    4.3527    0.0000 C   0  0  0  0  0  0  0  0  0  0  0  0
    3.4656    3.5277    0.0000 C   0  0  0  0  0  0  0  0  0  0  0  0
    2.7512    3.1152    0.0000 C   0  0  0  0  0  0  0  0  0  0  0  0
    2.0367    3.5277    0.0000 C   0  0  0  0  0  0  0  0  0  0  0  0
    2.7512    2.2902    0.0000 C   0  0  0  0  0  0  0  0  0  0  0  0
    3.4186    1.8053    0.0000 C   0  0  0  0  0  0  0  0  0  0  0  0
    3.1637    1.0206    0.0000 N   0  0  0  0  0  0  0  0  0  0  0  0
    2.3387    1.0206    0.0000 C   0  0  0  0  0  0  0  0  0  0  0  0
    2.0837    1.8053    0.0000 O   0  0  0  0  0  0  0  0  0  0  0  0
  1  2  1  0  0  0  0
  2  3  2  0  0  0  0
  2  4  1  0  0  0  0
  4  5  2  0  0  0  0
  5  6  1  0  0  0  0
  6  7  2  0  0  0  0
  7  8  1  0  0  0  0
  8  9  2  0  0  0  0
  4  9  1  0  0  0  0
  8 10  1  0  0  0  0
 10 11  2  0  0  0  0
 11 12  1  0  0  0  0
 12 13  2  0  0  0  0
 13 14  1  0  0  0  0
 10 14  1  0  0  0  0
M  END
>  <Catalog ID>
Z1201623834

>  <PlateID>
1198308-R-SPFL-13

>  <Well>
C08

>  <MW (desalted)>
189.167

>  <ClogP>
1.744

>  <HBD>
1

>  <TPSA>
63.330

>  <RotBonds>
2

$$$$

            

 11 12  0  0  0  0            999 V2000
    1.1270    0.6507    0.0000 C   0  0  0  0  0  0  0  0  0  0  0  0
    1.8414    1.0632    0.0000 C   0  0  0  0  0  0  0  0  0  0  0  0
    1.8414    1.8882    0.0000 C   0  0  0  0  0  0  0  0  0  0  0  0
    2.5559    2.3007    0.0000 C   0  0  0  0  0  0  0  0  0  0  0  0
    3.2704    1.8882    0.0000 N   0  0  0  0  0  0  0  0  0  0  0  0
    3.2704    1.0632    0.0000 C   0  0  0  0  0  0  0  0  0  0  0  0
    3.9849    0.6507    0.0000 N   0  0  0  0  0  0  0  0  0  0  0  0
    2.5559    0.6507    0.0000 C   0  0  0  0  0  0  0  0  0  0  0  0
    2.5559   -0.1743    0.0000 C   0  0  0  0  0  0  0  0  0  0  0  0
    2.9684   -0.8888    0.0000 C   0  0  0  0  0  0  0  0  0  0  0  0
    2.1434   -0.8888    0.0000 C   0  0  0  0  0  0  0  0  0  0  0  0
  1  2  1  0  0  0  0
  2  3  2  0  0  0  0
  3  4  1  0  0  0  0
  4  5  2  0  0  0  0
  5  6  1  0  0  0  0
  6  7  1  0  0  0  0
  6  8  2  0  0  0  0
  2  8  1  0  0  0  0
  8  9  1  0  0  0  0
  9 10  1  0  0  0  0
 10 11  1  0  0  0  0
  9 11  1  0  0  0  0
M  END
>  <Catalog ID>
Z1233201622

>  <PlateID>
1198308-R-SPFL-13

>  <Well>
C09

>  <MW (desalted)>
148.205

>  <ClogP>
1.410

>  <HBD>
1

>  <TPSA>
38.910

>  <RotBonds>
1

$$$$

            

 13 14  0  0  0  0            999 V2000
    1.4289   -1.6500    0.0000 C   0  0  0  0  0  0  0  0  0  0  0  0
    0.7145   -1.2375    0.0000 C   0  0  0  0  0  0  0  0  0  0  0  0
    0.7145   -0.4125    0.0000 C   0  0  0  0  0  0  0  0  0  0  0  0
    0.0000    0.0000    0.0000 C   0  0  0  0  0  0  0  0  0  0  0  0
    0.0000    0.8250    0.0000 C   0  0  0  0  0  0  0  0  0  0  0  0
    0.7145    1.2375    0.0000 C   0  0  0  0  0  0  0  0  0  0  0  0
    1.4289    0.8250    0.0000 C   0  0  0  0  0  0  0  0  0  0  0  0
    1.4289    0.0000    0.0000 C   0  0  0  0  0  0  0  0  0  0  0  0
    1.4289   -2.4750    0.0000 C   0  0  0  0  0  0  0  0  0  0  0  0
    2.0964   -2.9599    0.0000 N   0  0  0  0  0  0  0  0  0  0  0  0
    1.8414   -3.7445    0.0000 N   0  0  0  0  0  0  0  0  0  0  0  0
    1.0164   -3.7445    0.0000 N   0  0  0  0  0  0  0  0  0  0  0  0
    0.7615   -2.9599    0.0000 N   0  0  0  0  0  0  0  0  0  0  0  0
  1  2  1  0  0  0  0
  2  3  1  0  0  0  0
  3  4  2  0  0  0  0
  4  5  1  0  0  0  0
  5  6  2  0  0  0  0
  6  7  1  0  0  0  0
  7  8  2  0  0  0  0
  3  8  1  0  0  0  0
  1  9  1  0  0  0  0
  9 10  2  0  0  0  0
 10 11  1  0  0  0  0
 11 12  2  0  0  0  0
 12 13  1  0  0  0  0
  9 13  1  0  0  0  0
M  END
>  <Catalog ID>
Z335295262

>  <PlateID>
1198308-R-SPFL-13

>  <Well>
C10

>  <MW (desalted)>
174.203

>  <ClogP>
1.753

>  <HBD>
1

>  <TPSA>
54.460

>  <RotBonds>
3

$$$$

            

 15 14  0  0  0  0            999 V2000
    0.0000    0.0000    0.0000 Cl  0  0  0  0  0  0  0  0  0  0  0  0
    2.0036    0.0000    0.0000 Cl  0  0  0  0  0  0  0  0  0  0  0  0
   -2.7532   -3.1895    0.0000 C   0  0  0  0  0  0  0  0  0  0  0  0
   -1.9282   -3.1895    0.0000 N   0  0  0  0  0  0  0  0  0  0  0  0
   -1.5157   -2.4750    0.0000 C   0  0  0  0  0  0  0  0  0  0  0  0
   -0.6907   -2.4750    0.0000 C   0  0  0  0  0  0  0  0  0  0  0  0
   -0.2058   -1.8076    0.0000 N   0  0  0  0  0  0  0  0  0  0  0  0
    0.5789   -2.0625    0.0000 C   0  0  0  0  0  0  0  0  0  0  0  0
    1.2933   -1.6500    0.0000 C   0  0  0  0  0  0  0  0  0  0  0  0
    2.0078   -2.0625    0.0000 C   0  0  0  0  0  0  0  0  0  0  0  0
    2.0078   -2.8875    0.0000 C   0  0  0  0  0  0  0  0  0  0  0  0
    1.2933   -3.3000    0.0000 C   0  0  0  0  0  0  0  0  0  0  0  0
    0.5789   -2.8875    0.0000 C   0  0  0  0  0  0  0  0  0  0  0  0
   -0.2058   -3.1424    0.0000 N   0  0  0  0  0  0  0  0  0  0  0  0
   -0.4607   -3.9271    0.0000 C   0  0  0  0  0  0  0  0  0  0  0  0
  3  4  1  0  0  0  0
  4  5  1  0  0  0  0
  5  6  1  0  0  0  0
  6  7  2  0  0  0  0
  7  8  1  0  0  0  0
  8  9  2  0  0  0  0
  9 10  1  0  0  0  0
 10 11  2  0  0  0  0
 11 12  1  0  0  0  0
 12 13  2  0  0  0  0
  8 13  1  0  0  0  0
 13 14  1  0  0  0  0
  6 14  1  0  0  0  0
 14 15  1  0  0  0  0
M  END
>  <Catalog ID>
Z1266933897

>  <PlateID>
1198308-R-SPFL-13

>  <Well>
C11

>  <MW (desalted)>
175.230

>  <ClogP>
0.949

>  <HBD>
1

>  <TPSA>
29.850

>  <RotBonds>
2

$$$$

            

 11 11  0  0  0  0            999 V2000
    0.0000    3.3000    0.0000 C   0  0  0  0  0  0  0  0  0  0  0  0
    0.0000    2.4750    0.0000 C   0  0  0  0  0  0  0  0  0  0  0  0
   -0.7145    2.0625    0.0000 O   0  0  0  0  0  0  0  0  0  0  0  0
    0.7145    2.0625    0.0000 N   0  0  0  0  0  0  0  0  0  0  0  0
    0.7145    1.2375    0.0000 C   0  0  0  0  0  0  0  0  0  0  0  0
    1.4289    0.8250    0.0000 C   0  0  0  0  0  0  0  0  0  0  0  0
    1.4289   -0.0000    0.0000 N   0  0  0  0  0  0  0  0  0  0  0  0
    0.7145   -0.4125    0.0000 C   0  0  0  0  0  0  0  0  0  0  0  0
    0.0000    0.0000    0.0000 C   0  0  0  0  0  0  0  0  0  0  0  0
    0.0000    0.8250    0.0000 C   0  0  0  0  0  0  0  0  0  0  0  0
   -0.7145    1.2375    0.0000 C   0  0  0  0  0  0  0  0  0  0  0  0
  1  2  1  0  0  0  0
  2  3  2  0  0  0  0
  2  4  1  0  0  0  0
  4  5  1  0  0  0  0
  5  6  2  0  0  0  0
  6  7  1  0  0  0  0
  7  8  2  0  0  0  0
  8  9  1  0  0  0  0
  9 10  2  0  0  0  0
  5 10  1  0  0  0  0
 10 11  1  0  0  0  0
M  END
>  <Catalog ID>
Z1129283193

>  <PlateID>
1198308-R-SPFL-13

>  <Well>
D02

>  <MW (desalted)>
150.178

>  <ClogP>
0.341

>  <HBD>
1

>  <TPSA>
41.990

>  <RotBonds>
1

$$$$

            

 13 15  0  0  0  0            999 V2000
    4.6905    0.4618    0.0000 C   0  0  0  0  0  0  0  0  0  0  0  0
    4.2537   -0.2381    0.0000 C   0  0  0  0  0  0  0  0  0  0  0  0
    3.4531   -0.0388    0.0000 C   0  0  0  0  0  0  0  0  0  0  0  0
    3.3952    0.7841    0.0000 C   0  0  0  0  0  0  0  0  0  0  0  0
    4.1600    1.0935    0.0000 O   0  0  0  0  0  0  0  0  0  0  0  0
    3.5967   -0.8512    0.0000 N   0  0  0  0  0  0  0  0  0  0  0  0
    2.9649   -1.3818    0.0000 C   0  0  0  0  0  0  0  0  0  0  0  0
    2.1896   -1.1000    0.0000 C   0  0  0  0  0  0  0  0  0  0  0  0
    2.0460   -0.2876    0.0000 N   0  0  0  0  0  0  0  0  0  0  0  0
    1.3461    0.1493    0.0000 C   0  0  0  0  0  0  0  0  0  0  0  0
    1.5454    0.9499    0.0000 C   0  0  0  0  0  0  0  0  0  0  0  0
    2.3683    1.0078    0.0000 C   0  0  0  0  0  0  0  0  0  0  0  0
    2.6777    0.2430    0.0000 C   0  0  0  0  0  0  0  0  0  0  0  0
  1  2  1  0  0  0  0
  2  3  1  0  0  0  0
  3  4  1  0  0  0  0
  4  5  1  0  0  0  0
  1  5  1  0  0  0  0
  3  6  1  0  0  0  0
  6  7  1  0  0  0  0
  7  8  1  0  0  0  0
  8  9  1  0  0  0  0
  9 10  1  0  0  0  0
 10 11  2  0  0  0  0
 11 12  1  0  0  0  0
 12 13  2  0  0  0  0
  9 13  1  0  0  0  0
  3 13  1  0  0  0  0
M  END
>  <Catalog ID>
Z2026200614

>  <PlateID>
1198308-R-SPFL-13

>  <Well>
D03

>  <MW (desalted)>
178.231

>  <ClogP>
0.138

>  <HBD>
1

>  <TPSA>
26.190

>  <RotBonds>
0

$$$$

            

 14 16  0  0  0  0            999 V2000
    0.9130   -0.8764    0.0000 O   0  0  0  0  0  0  0  0  0  0  0  0
    1.7200   -1.0479    0.0000 C   0  0  0  0  0  0  0  0  0  0  0  0
    2.2720   -0.4349    0.0000 C   0  0  0  0  0  0  0  0  0  0  0  0
    3.0790   -0.6064    0.0000 C   0  0  0  0  0  0  0  0  0  0  0  0
    3.7464   -0.1215    0.0000 C   0  0  0  0  0  0  0  0  0  0  0  0
    4.4139   -0.6064    0.0000 C   0  0  0  0  0  0  0  0  0  0  0  0
    5.2208   -0.4349    0.0000 C   0  0  0  0  0  0  0  0  0  0  0  0
    5.7729   -1.0479    0.0000 C   0  0  0  0  0  0  0  0  0  0  0  0
    5.5179   -1.8326    0.0000 C   0  0  0  0  0  0  0  0  0  0  0  0
    4.7110   -2.0041    0.0000 C   0  0  0  0  0  0  0  0  0  0  0  0
    4.1589   -1.3910    0.0000 C   0  0  0  0  0  0  0  0  0  0  0  0
    3.3339   -1.3910    0.0000 C   0  0  0  0  0  0  0  0  0  0  0  0
    2.7819   -2.0041    0.0000 N   0  0  0  0  0  0  0  0  0  0  0  0
    1.9749   -1.8326    0.0000 N   0  0  0  0  0  0  0  0  0  0  0  0
  1  2  2  0  0  0  0
  2  3  1  0  0  0  0
  3  4  1  0  0  0  0
  4  5  1  0  0  0  0
  5  6  1  0  0  0  0
  6  7  2  0  0  0  0
  7  8  1  0  0  0  0
  8  9  2  0  0  0  0
  9 10  1  0  0  0  0
 10 11  2  0  0  0  0
  6 11  1  0  0  0  0
 11 12  1  0  0  0  0
  4 12  1  0  0  0  0
 12 13  2  0  0  0  0
 13 14  1  0  0  0  0
  2 14  1  0  0  0  0
M  END
>  <Catalog ID>
Z1862024743

>  <PlateID>
1198308-R-SPFL-13

>  <Well>
D04

>  <MW (desalted)>
186.210

>  <ClogP>
0.818

>  <HBD>
1

>  <TPSA>
41.460

>  <RotBonds>
0

$$$$

            

 10 11  0  0  0  0            999 V2000
    0.8838   -2.1500    0.0000 C   0  0  0  0  0  0  0  0  0  0  0  0
    1.1387   -1.3654    0.0000 C   0  0  0  0  0  0  0  0  0  0  0  0
    0.6538   -0.6979    0.0000 C   0  0  0  0  0  0  0  0  0  0  0  0
    1.1387   -0.0305    0.0000 S   0  0  0  0  0  0  0  0  0  0  0  0
    1.9233   -0.2854    0.0000 C   0  0  0  0  0  0  0  0  0  0  0  0
    2.6378    0.1271    0.0000 C   0  0  0  0  0  0  0  0  0  0  0  0
    3.3523   -0.2854    0.0000 N   0  0  0  0  0  0  0  0  0  0  0  0
    3.3523   -1.1104    0.0000 C   0  0  0  0  0  0  0  0  0  0  0  0
    2.6378   -1.5229    0.0000 N   0  0  0  0  0  0  0  0  0  0  0  0
    1.9233   -1.1104    0.0000 C   0  0  0  0  0  0  0  0  0  0  0  0
  1  2  1  0  0  0  0
  2  3  2  0  0  0  0
  3  4  1  0  0  0  0
  4  5  1  0  0  0  0
  5  6  2  0  0  0  0
  6  7  1  0  0  0  0
  7  8  2  0  0  0  0
  8  9  1  0  0  0  0
  9 10  2  0  0  0  0
  2 10  1  0  0  0  0
  5 10  1  0  0  0  0
M  END
>  <Catalog ID>
Z1201626971

>  <PlateID>
1198308-R-SPFL-13

>  <Well>
D05

>  <MW (desalted)>
150.201

>  <ClogP>
1.595

>  <HBD>
0

>  <TPSA>
25.780

>  <RotBonds>
0

$$$$

            

 12 13  0  0  0  0            999 V2000
   -0.6078   -0.4741    0.0000 C   0  0  0  0  0  0  0  0  0  0  0  0
   -1.3222   -0.0616    0.0000 C   0  0  0  0  0  0  0  0  0  0  0  0
   -2.0367   -0.4741    0.0000 C   0  0  0  0  0  0  0  0  0  0  0  0
   -2.7512   -0.0616    0.0000 C   0  0  0  0  0  0  0  0  0  0  0  0
   -2.7512    0.7634    0.0000 N   0  0  0  0  0  0  0  0  0  0  0  0
   -2.0367    1.1759    0.0000 C   0  0  0  0  0  0  0  0  0  0  0  0
   -1.3222    0.7634    0.0000 C   0  0  0  0  0  0  0  0  0  0  0  0
   -0.6078   -1.2991    0.0000 N   0  0  0  0  0  0  0  0  0  0  0  0
    0.0597   -1.7840    0.0000 C   0  0  0  0  0  0  0  0  0  0  0  0
   -0.1953   -2.5687    0.0000 C   0  0  0  0  0  0  0  0  0  0  0  0
   -1.0203   -2.5687    0.0000 C   0  0  0  0  0  0  0  0  0  0  0  0
   -1.2752   -1.7840    0.0000 N   0  0  0  0  0  0  0  0  0  0  0  0
  1  2  1  0  0  0  0
  2  3  1  0  0  0  0
  3  4  1  0  0  0  0
  4  5  1  0  0  0  0
  5  6  1  0  0  0  0
  6  7  1  0  0  0  0
  2  7  1  0  0  0  0
  1  8  1  0  0  0  0
  8  9  1  0  0  0  0
  9 10  2  0  0  0  0
 10 11  1  0  0  0  0
 11 12  2  0  0  0  0
  8 12  1  0  0  0  0
M  END
>  <Catalog ID>
Z839521286

>  <PlateID>
1198308-R-SPFL-13

>  <Well>
D06

>  <MW (desalted)>
165.236

>  <ClogP>
0.488

>  <HBD>
1

>  <TPSA>
29.850

>  <RotBonds>
2

$$$$

            

 14 14  0  0  0  0            999 V2000
    0.0000    0.0000    0.0000 Cl  0  0  0  0  0  0  0  0  0  0  0  0
    2.3571    2.3641    0.0000 N   0  0  0  0  0  0  0  0  0  0  0  0
    2.3571    1.5391    0.0000 C   0  0  0  0  0  0  0  0  0  0  0  0
    3.0716    1.1266    0.0000 C   0  0  0  0  0  0  0  0  0  0  0  0
    3.7861    1.5391    0.0000 C   0  0  0  0  0  0  0  0  0  0  0  0
    4.5006    1.1266    0.0000 C   0  0  0  0  0  0  0  0  0  0  0  0
    4.5006    0.3016    0.0000 C   0  0  0  0  0  0  0  0  0  0  0  0
    3.7861   -0.1109    0.0000 C   0  0  0  0  0  0  0  0  0  0  0  0
    3.0716    0.3016    0.0000 C   0  0  0  0  0  0  0  0  0  0  0  0
    3.7861   -0.9359    0.0000 C   0  0  0  0  0  0  0  0  0  0  0  0
    4.4535   -1.4208    0.0000 C   0  0  0  0  0  0  0  0  0  0  0  0
    4.1986   -2.2054    0.0000 N   0  0  0  0  0  0  0  0  0  0  0  0
    3.3736   -2.2054    0.0000 C   0  0  0  0  0  0  0  0  0  0  0  0
    3.1186   -1.4208    0.0000 O   0  0  0  0  0  0  0  0  0  0  0  0
  2  3  1  0  0  0  0
  3  4  1  0  0  0  0
  4  5  2  0  0  0  0
  5  6  1  0  0  0  0
  6  7  2  0  0  0  0
  7  8  1  0  0  0  0
  8  9  2  0  0  0  0
  4  9  1  0  0  0  0
  8 10  1  0  0  0  0
 10 11  2  0  0  0  0
 11 12  1  0  0  0  0
 12 13  2  0  0  0  0
 13 14  1  0  0  0  0
 10 14  1  0  0  0  0
M  END
>  <Catalog ID>
Z2289800261

>  <PlateID>
1198308-R-SPFL-13

>  <Well>
D07

>  <MW (desalted)>
174.199

>  <ClogP>
0.871

>  <HBD>
1

>  <TPSA>
52.050

>  <RotBonds>
2

$$$$

            

 11 12  0  0  0  0            999 V2000
    0.3020    4.4270    0.0000 C   0  0  0  0  0  0  0  0  0  0  0  0
   -0.4125    4.0145    0.0000 C   0  0  0  0  0  0  0  0  0  0  0  0
   -0.4125    3.1895    0.0000 C   0  0  0  0  0  0  0  0  0  0  0  0
   -1.1270    2.7770    0.0000 C   0  0  0  0  0  0  0  0  0  0  0  0
   -1.8414    3.1895    0.0000 N   0  0  0  0  0  0  0  0  0  0  0  0
   -1.8414    4.0145    0.0000 C   0  0  0  0  0  0  0  0  0  0  0  0
   -2.5559    4.4270    0.0000 N   0  0  0  0  0  0  0  0  0  0  0  0
   -1.1270    4.4270    0.0000 N   0  0  0  0  0  0  0  0  0  0  0  0
   -1.1270    1.9520    0.0000 C   0  0  0  0  0  0  0  0  0  0  0  0
   -0.7145    1.2375    0.0000 C   0  0  0  0  0  0  0  0  0  0  0  0
   -1.5395    1.2375    0.0000 C   0  0  0  0  0  0  0  0  0  0  0  0
  1  2  1  0  0  0  0
  2  3  2  0  0  0  0
  3  4  1  0  0  0  0
  4  5  2  0  0  0  0
  5  6  1  0  0  0  0
  6  7  1  0  0  0  0
  6  8  2  0  0  0  0
  2  8  1  0  0  0  0
  4  9  1  0  0  0  0
  9 10  1  0  0  0  0
 10 11  1  0  0  0  0
  9 11  1  0  0  0  0
M  END
>  <Catalog ID>
Z991536888

>  <PlateID>
1198308-R-SPFL-13

>  <Well>
D08

>  <MW (desalted)>
149.193

>  <ClogP>
1.118

>  <HBD>
1

>  <TPSA>
51.800

>  <RotBonds>
1

$$$$

            

 13 14  0  0  0  0            999 V2000
    0.7145   -2.8875    0.0000 O   0  0  0  0  0  0  0  0  0  0  0  0
    1.4289   -2.4750    0.0000 C   0  0  0  0  0  0  0  0  0  0  0  0
    2.1434   -2.8875    0.0000 O   0  0  0  0  0  0  0  0  0  0  0  0
    1.4289   -1.6500    0.0000 C   0  0  0  0  0  0  0  0  0  0  0  0
    0.7145   -1.2375    0.0000 C   0  0  0  0  0  0  0  0  0  0  0  0
    0.7145   -0.4125    0.0000 C   0  0  0  0  0  0  0  0  0  0  0  0
    1.4289    0.0000    0.0000 O   0  0  0  0  0  0  0  0  0  0  0  0
    2.1434   -0.4125    0.0000 C   0  0  0  0  0  0  0  0  0  0  0  0
    2.8579    0.0000    0.0000 C   0  0  0  0  0  0  0  0  0  0  0  0
    3.5724   -0.4125    0.0000 C   0  0  0  0  0  0  0  0  0  0  0  0
    3.5724   -1.2375    0.0000 C   0  0  0  0  0  0  0  0  0  0  0  0
    2.8579   -1.6500    0.0000 C   0  0  0  0  0  0  0  0  0  0  0  0
    2.1434   -1.2375    0.0000 C   0  0  0  0  0  0  0  0  0  0  0  0
  1  2  1  0  0  0  0
  2  3  2  0  0  0  0
  2  4  1  0  0  0  0
  4  5  1  0  0  0  0
  5  6  1  0  0  0  0
  6  7  1  0  0  0  0
  7  8  1  0  0  0  0
  8  9  2  0  0  0  0
  9 10  1  0  0  0  0
 10 11  2  0  0  0  0
 11 12  1  0  0  0  0
 12 13  2  0  0  0  0
  4 13  1  0  0  0  0
  8 13  1  0  0  0  0
M  END
>  <Catalog ID>
Z792377210

>  <PlateID>
1198308-R-SPFL-13

>  <Well>
D09

>  <MW (desalted)>
178.185

>  <ClogP>
1.278

>  <HBD>
1

>  <TPSA>
46.530

>  <RotBonds>
1

$$$$

            

 12 13  0  0  0  0            999 V2000
    0.7145   -0.4125    0.0000 C   0  0  0  0  0  0  0  0  0  0  0  0
    0.7145   -1.2375    0.0000 N   0  0  0  0  0  0  0  0  0  0  0  0
    1.3819   -1.7224    0.0000 C   0  0  0  0  0  0  0  0  0  0  0  0
    1.1270   -2.5070    0.0000 C   0  0  0  0  0  0  0  0  0  0  0  0
    0.3020   -2.5070    0.0000 N   0  0  0  0  0  0  0  0  0  0  0  0
    0.0470   -1.7224    0.0000 C   0  0  0  0  0  0  0  0  0  0  0  0
   -0.7376   -1.4675    0.0000 C   0  0  0  0  0  0  0  0  0  0  0  0
   -1.3507   -2.0195    0.0000 C   0  0  0  0  0  0  0  0  0  0  0  0
   -2.1353   -1.7646    0.0000 C   0  0  0  0  0  0  0  0  0  0  0  0
   -2.3068   -0.9576    0.0000 C   0  0  0  0  0  0  0  0  0  0  0  0
   -1.6937   -0.4056    0.0000 N   0  0  0  0  0  0  0  0  0  0  0  0
   -0.9091   -0.6605    0.0000 C   0  0  0  0  0  0  0  0  0  0  0  0
  1  2  1  0  0  0  0
  2  3  1  0  0  0  0
  3  4  2  0  0  0  0
  4  5  1  0  0  0  0
  5  6  2  0  0  0  0
  2  6  1  0  0  0  0
  6  7  1  0  0  0  0
  7  8  1  0  0  0  0
  8  9  1  0  0  0  0
  9 10  1  0  0  0  0
 10 11  1  0  0  0  0
 11 12  1  0  0  0  0
  7 12  1  0  0  0  0
M  END
>  <Catalog ID>
Z1881620389

>  <PlateID>
1198308-R-SPFL-13

>  <Well>
D10

>  <MW (desalted)>
165.236

>  <ClogP>
0.108

>  <HBD>
1

>  <TPSA>
29.850

>  <RotBonds>
1

$$$$

            

 16 15  0  0  0  0            999 V2000
    0.0000    0.0000    0.0000 Cl  0  0  0  0  0  0  0  0  0  0  0  0
    2.0036    0.0000    0.0000 Cl  0  0  0  0  0  0  0  0  0  0  0  0
    1.3269   -1.6500    0.0000 Cl  0  0  0  0  0  0  0  0  0  0  0  0
    1.3269   -2.4750    0.0000 C   0  0  0  0  0  0  0  0  0  0  0  0
    2.0413   -2.8875    0.0000 C   0  0  0  0  0  0  0  0  0  0  0  0
    2.0413   -3.7125    0.0000 N   0  0  0  0  0  0  0  0  0  0  0  0
    1.3269   -4.1250    0.0000 C   0  0  0  0  0  0  0  0  0  0  0  0
    0.6124   -3.7125    0.0000 C   0  0  0  0  0  0  0  0  0  0  0  0
   -0.1021   -4.1250    0.0000 O   0  0  0  0  0  0  0  0  0  0  0  0
   -0.8165   -3.7125    0.0000 C   0  0  0  0  0  0  0  0  0  0  0  0
   -1.5310   -4.1250    0.0000 C   0  0  0  0  0  0  0  0  0  0  0  0
   -2.2455   -3.7125    0.0000 C   0  0  0  0  0  0  0  0  0  0  0  0
   -2.2455   -2.8875    0.0000 N   0  0  0  0  0  0  0  0  0  0  0  0
   -1.5310   -2.4750    0.0000 C   0  0  0  0  0  0  0  0  0  0  0  0
   -0.8165   -2.8875    0.0000 C   0  0  0  0  0  0  0  0  0  0  0  0
    0.6124   -2.8875    0.0000 C   0  0  0  0  0  0  0  0  0  0  0  0
  3  4  1  0  0  0  0
  4  5  2  0  0  0  0
  5  6  1  0  0  0  0
  6  7  2  0  0  0  0
  7  8  1  0  0  0  0
  8  9  1  0  0  0  0
  9 10  1  0  0  0  0
 10 11  1  0  0  0  0
 11 12  1  0  0  0  0
 12 13  1  0  0  0  0
 13 14  1  0  0  0  0
 14 15  1  0  0  0  0
 10 15  1  0  0  0  0
  8 16  2  0  0  0  0
  4 16  1  0  0  0  0
M  END
>  <Catalog ID>
Z2517097655

>  <PlateID>
1198308-R-SPFL-13

>  <Well>
D11

>  <MW (desalted)>
212.676

>  <ClogP>
1.431

>  <HBD>
1

>  <TPSA>
34.150

>  <RotBonds>
2

$$$$

            

 14 15  0  0  0  0            999 V2000
    0.8212   -0.4741    0.0000 N   0  0  0  0  0  0  0  0  0  0  0  0
    0.1067   -0.0616    0.0000 C   0  0  0  0  0  0  0  0  0  0  0  0
   -0.6078   -0.4741    0.0000 C   0  0  0  0  0  0  0  0  0  0  0  0
   -1.3222   -0.0616    0.0000 C   0  0  0  0  0  0  0  0  0  0  0  0
   -2.0367   -0.4741    0.0000 C   0  0  0  0  0  0  0  0  0  0  0  0
   -2.7512   -0.0616    0.0000 C   0  0  0  0  0  0  0  0  0  0  0  0
   -2.7512    0.7634    0.0000 C   0  0  0  0  0  0  0  0  0  0  0  0
   -2.0367    1.1759    0.0000 C   0  0  0  0  0  0  0  0  0  0  0  0
   -1.3222    0.7634    0.0000 C   0  0  0  0  0  0  0  0  0  0  0  0
   -0.6078   -1.2991    0.0000 N   0  0  0  0  0  0  0  0  0  0  0  0
    0.0597   -1.7840    0.0000 C   0  0  0  0  0  0  0  0  0  0  0  0
   -0.1953   -2.5687    0.0000 C   0  0  0  0  0  0  0  0  0  0  0  0
   -1.0203   -2.5687    0.0000 C   0  0  0  0  0  0  0  0  0  0  0  0
   -1.2752   -1.7840    0.0000 N   0  0  0  0  0  0  0  0  0  0  0  0
  1  2  1  0  0  0  0
  2  3  1  0  0  0  0
  3  4  1  0  0  0  0
  4  5  2  0  0  0  0
  5  6  1  0  0  0  0
  6  7  2  0  0  0  0
  7  8  1  0  0  0  0
  8  9  2  0  0  0  0
  4  9  1  0  0  0  0
  3 10  1  0  0  0  0
 10 11  1  0  0  0  0
 11 12  2  0  0  0  0
 12 13  1  0  0  0  0
 13 14  2  0  0  0  0
 10 14  1  0  0  0  0
M  END
>  <Catalog ID>
Z838172150

>  <PlateID>
1198308-R-SPFL-13

>  <Well>
E02

>  <MW (desalted)>
187.241

>  <ClogP>
1.290

>  <HBD>
1

>  <TPSA>
43.840

>  <RotBonds>
3

$$$$

            

 11 12  0  0  0  0            999 V2000
   -1.4211   -0.1494    0.0000 O   0  0  0  0  0  0  0  0  0  0  0  0
   -0.6674   -0.4849    0.0000 C   0  0  0  0  0  0  0  0  0  0  0  0
   -0.0000    0.0000    0.0000 C   0  0  0  0  0  0  0  0  0  0  0  0
   -0.0000    0.8250    0.0000 C   0  0  0  0  0  0  0  0  0  0  0  0
    0.7846    1.0799    0.0000 C   0  0  0  0  0  0  0  0  0  0  0  0
    1.2695    0.4125    0.0000 C   0  0  0  0  0  0  0  0  0  0  0  0
    1.7545    1.0799    0.0000 C   0  0  0  0  0  0  0  0  0  0  0  0
    2.5391    0.8250    0.0000 C   0  0  0  0  0  0  0  0  0  0  0  0
    2.5391   -0.0000    0.0000 C   0  0  0  0  0  0  0  0  0  0  0  0
    1.7545   -0.2549    0.0000 C   0  0  0  0  0  0  0  0  0  0  0  0
    0.7846   -0.2549    0.0000 O   0  0  0  0  0  0  0  0  0  0  0  0
  1  2  1  0  0  0  0
  2  3  1  0  0  0  0
  3  4  1  0  0  0  0
  4  5  1  0  0  0  0
  5  6  1  0  0  0  0
  6  7  1  0  0  0  0
  7  8  1  0  0  0  0
  8  9  1  0  0  0  0
  9 10  1  0  0  0  0
  6 10  1  0  0  0  0
  6 11  1  0  0  0  0
  3 11  1  0  0  0  0
M  END
>  <Catalog ID>
Z1805621704

>  <PlateID>
1198308-R-SPFL-13

>  <Well>
E03

>  <MW (desalted)>
156.222

>  <ClogP>
1.140

>  <HBD>
1

>  <TPSA>
29.460

>  <RotBonds>
1

$$$$

            

 17 16  0  0  0  0            999 V2000
    0.0000    0.0000    0.0000 Cl  0  0  0  0  0  0  0  0  0  0  0  0
    2.0036    0.0000    0.0000 Cl  0  0  0  0  0  0  0  0  0  0  0  0
    2.6349   -1.6500    0.0000 C   0  0  0  0  0  0  0  0  0  0  0  0
    1.9204   -2.0625    0.0000 C   0  0  0  0  0  0  0  0  0  0  0  0
    1.9204   -2.8875    0.0000 C   0  0  0  0  0  0  0  0  0  0  0  0
    1.2060   -3.3000    0.0000 C   0  0  0  0  0  0  0  0  0  0  0  0
    1.2060   -4.1250    0.0000 C   0  0  0  0  0  0  0  0  0  0  0  0
    0.4915   -2.8875    0.0000 N   0  0  0  0  0  0  0  0  0  0  0  0
   -0.2931   -3.1424    0.0000 N   0  0  0  0  0  0  0  0  0  0  0  0
   -0.7781   -2.4750    0.0000 C   0  0  0  0  0  0  0  0  0  0  0  0
   -1.6031   -2.4750    0.0000 C   0  0  0  0  0  0  0  0  0  0  0  0
   -2.0156   -3.1895    0.0000 C   0  0  0  0  0  0  0  0  0  0  0  0
   -2.8406   -3.1895    0.0000 C   0  0  0  0  0  0  0  0  0  0  0  0
   -3.2531   -3.9039    0.0000 N   0  0  0  0  0  0  0  0  0  0  0  0
   -0.2931   -1.8076    0.0000 C   0  0  0  0  0  0  0  0  0  0  0  0
    0.4915   -2.0625    0.0000 C   0  0  0  0  0  0  0  0  0  0  0  0
    1.2060   -1.6500    0.0000 N   0  0  0  0  0  0  0  0  0  0  0  0
  3  4  1  0  0  0  0
  4  5  1  0  0  0  0
  5  6  2  0  0  0  0
  6  7  1  0  0  0  0
  6  8  1  0  0  0  0
  8  9  1  0  0  0  0
  9 10  2  0  0  0  0
 10 11  1  0  0  0  0
 11 12  1  0  0  0  0
 12 13  1  0  0  0  0
 13 14  1  0  0  0  0
 10 15  1  0  0  0  0
 15 16  2  0  0  0  0
  8 16  1  0  0  0  0
 16 17  1  0  0  0  0
  4 17  2  0  0  0  0
M  END
>  <Catalog ID>
Z1222331865

>  <PlateID>
1198308-R-SPFL-13

>  <Well>
E04

>  <MW (desalted)>
204.272

>  <ClogP>
0.919

>  <HBD>
1

>  <TPSA>
56.210

>  <RotBonds>
3

$$$$

            

 12 12  0  0  0  0            999 V2000
    0.0000    4.1250    0.0000 C   0  0  0  0  0  0  0  0  0  0  0  0
    0.0000    3.3000    0.0000 S   0  0  0  0  0  0  0  0  0  0  0  0
   -0.8250    3.3000    0.0000 O   0  0  0  0  0  0  0  0  0  0  0  0
    0.8250    3.3000    0.0000 O   0  0  0  0  0  0  0  0  0  0  0  0
    0.0000    2.4750    0.0000 N   0  0  0  0  0  0  0  0  0  0  0  0
    0.7145    2.0625    0.0000 C   0  0  0  0  0  0  0  0  0  0  0  0
    0.7145    1.2375    0.0000 C   0  0  0  0  0  0  0  0  0  0  0  0
    1.4289    0.8250    0.0000 C   0  0  0  0  0  0  0  0  0  0  0  0
    1.4289   -0.0000    0.0000 C   0  0  0  0  0  0  0  0  0  0  0  0
    0.7145   -0.4125    0.0000 C   0  0  0  0  0  0  0  0  0  0  0  0
    0.0000    0.0000    0.0000 C   0  0  0  0  0  0  0  0  0  0  0  0
    0.0000    0.8250    0.0000 C   0  0  0  0  0  0  0  0  0  0  0  0
  1  2  1  0  0  0  0
  2  3  2  0  0  0  0
  2  4  2  0  0  0  0
  2  5  1  0  0  0  0
  5  6  1  0  0  0  0
  6  7  1  0  0  0  0
  7  8  2  0  0  0  0
  8  9  1  0  0  0  0
  9 10  2  0  0  0  0
 10 11  1  0  0  0  0
 11 12  2  0  0  0  0
  7 12  1  0  0  0  0
M  END
>  <Catalog ID>
Z53825161

>  <PlateID>
1198308-R-SPFL-13

>  <Well>
E05

>  <MW (desalted)>
185.243

>  <ClogP>
0.810

>  <HBD>
1

>  <TPSA>
46.170

>  <RotBonds>
2

$$$$

            

 12 13  0  0  0  0            999 V2000
    2.9195   -1.0164    0.0000 O   0  0  0  0  0  0  0  0  0  0  0  0
    2.5070   -0.3020    0.0000 C   0  0  0  0  0  0  0  0  0  0  0  0
    1.6820   -0.3020    0.0000 C   0  0  0  0  0  0  0  0  0  0  0  0
    1.2695    0.4125    0.0000 C   0  0  0  0  0  0  0  0  0  0  0  0
    0.7846   -0.2549    0.0000 C   0  0  0  0  0  0  0  0  0  0  0  0
    0.0000   -0.0000    0.0000 C   0  0  0  0  0  0  0  0  0  0  0  0
   -0.0000    0.8250    0.0000 C   0  0  0  0  0  0  0  0  0  0  0  0
    0.7846    1.0799    0.0000 C   0  0  0  0  0  0  0  0  0  0  0  0
    1.6820    1.1270    0.0000 N   0  0  0  0  0  0  0  0  0  0  0  0
    2.5070    1.1270    0.0000 C   0  0  0  0  0  0  0  0  0  0  0  0
    2.9195    1.8414    0.0000 O   0  0  0  0  0  0  0  0  0  0  0  0
    2.9195    0.4125    0.0000 N   0  0  0  0  0  0  0  0  0  0  0  0
  1  2  2  0  0  0  0
  2  3  1  0  0  0  0
  3  4  1  0  0  0  0
  4  5  1  0  0  0  0
  5  6  1  0  0  0  0
  6  7  1  0  0  0  0
  7  8  1  0  0  0  0
  4  8  1  0  0  0  0
  4  9  1  0  0  0  0
  9 10  1  0  0  0  0
 10 11  2  0  0  0  0
 10 12  1  0  0  0  0
  2 12  1  0  0  0  0
M  END
>  <Catalog ID>
Z1238843340

>  <PlateID>
1198308-R-SPFL-13

>  <Well>
E06

>  <MW (desalted)>
168.193

>  <ClogP>
0.200

>  <HBD>
2

>  <TPSA>
58.200

>  <RotBonds>
0

$$$$

            

 13 14  0  0  0  0            999 V2000
    1.4289   -0.0000    0.0000 O   0  0  0  0  0  0  0  0  0  0  0  0
    0.7145   -0.4125    0.0000 C   0  0  0  0  0  0  0  0  0  0  0  0
    0.7145   -1.2375    0.0000 C   0  0  0  0  0  0  0  0  0  0  0  0
    1.3819   -1.7224    0.0000 N   0  0  0  0  0  0  0  0  0  0  0  0
    1.1270   -2.5070    0.0000 N   0  0  0  0  0  0  0  0  0  0  0  0
    0.3020   -2.5070    0.0000 C   0  0  0  0  0  0  0  0  0  0  0  0
    0.0470   -1.7224    0.0000 N   0  0  0  0  0  0  0  0  0  0  0  0
   -0.7376   -1.4675    0.0000 C   0  0  0  0  0  0  0  0  0  0  0  0
   -1.3507   -2.0195    0.0000 C   0  0  0  0  0  0  0  0  0  0  0  0
   -2.1353   -1.7646    0.0000 C   0  0  0  0  0  0  0  0  0  0  0  0
   -2.3068   -0.9576    0.0000 C   0  0  0  0  0  0  0  0  0  0  0  0
   -1.6937   -0.4056    0.0000 C   0  0  0  0  0  0  0  0  0  0  0  0
   -0.9091   -0.6605    0.0000 C   0  0  0  0  0  0  0  0  0  0  0  0
  1  2  1  0  0  0  0
  2  3  1  0  0  0  0
  3  4  2  0  0  0  0
  4  5  1  0  0  0  0
  5  6  2  0  0  0  0
  6  7  1  0  0  0  0
  3  7  1  0  0  0  0
  7  8  1  0  0  0  0
  8  9  2  0  0  0  0
  9 10  1  0  0  0  0
 10 11  2  0  0  0  0
 11 12  1  0  0  0  0
 12 13  2  0  0  0  0
  8 13  1  0  0  0  0
M  END
>  <Catalog ID>
Z1470159280

>  <PlateID>
1198308-R-SPFL-13

>  <Well>
E07

>  <MW (desalted)>
175.187

>  <ClogP>
-0.033

>  <HBD>
1

>  <TPSA>
50.940

>  <RotBonds>
2

$$$$

            

 12 12  0  0  0  0            999 V2000
    0.0000    0.0000    0.0000 Cl  0  0  0  0  0  0  0  0  0  0  0  0
    5.5281    0.8670    0.0000 C   0  0  0  0  0  0  0  0  0  0  0  0
    4.7133    0.7379    0.0000 C   0  0  0  0  0  0  0  0  0  0  0  0
    4.3387    0.0028    0.0000 N   0  0  0  0  0  0  0  0  0  0  0  0
    3.5239    0.1319    0.0000 C   0  0  0  0  0  0  0  0  0  0  0  0
    3.3948    0.9467    0.0000 N   0  0  0  0  0  0  0  0  0  0  0  0
    4.1299    1.3213    0.0000 O   0  0  0  0  0  0  0  0  0  0  0  0
    2.9405   -0.4515    0.0000 C   0  0  0  0  0  0  0  0  0  0  0  0
    2.3571    0.1319    0.0000 N   0  0  0  0  0  0  0  0  0  0  0  0
    3.5239   -1.0349    0.0000 C   0  0  0  0  0  0  0  0  0  0  0  0
    2.9405   -1.6182    0.0000 C   0  0  0  0  0  0  0  0  0  0  0  0
    2.3571   -1.0349    0.0000 C   0  0  0  0  0  0  0  0  0  0  0  0
  2  3  1  0  0  0  0
  3  4  2  0  0  0  0
  4  5  1  0  0  0  0
  5  6  2  0  0  0  0
  6  7  1  0  0  0  0
  3  7  1  0  0  0  0
  5  8  1  0  0  0  0
  8  9  1  0  0  0  0
  8 10  1  0  0  0  0
 10 11  1  0  0  0  0
 11 12  1  0  0  0  0
  8 12  1  0  0  0  0
M  END
>  <Catalog ID>
Z382700780

>  <PlateID>
1198308-R-SPFL-13

>  <Well>
E08

>  <MW (desalted)>
153.182

>  <ClogP>
-0.382

>  <HBD>
1

>  <TPSA>
64.940

>  <RotBonds>
1

$$$$

            

 13 14  0  0  0  0            999 V2000
    4.7812    2.7604    0.0000 N   0  0  0  0  0  0  0  0  0  0  0  0
    4.0668    2.3479    0.0000 S   0  0  0  0  0  0  0  0  0  0  0  0
    3.6543    3.0624    0.0000 O   0  0  0  0  0  0  0  0  0  0  0  0
    4.4793    1.6335    0.0000 O   0  0  0  0  0  0  0  0  0  0  0  0
    3.3523    1.9354    0.0000 C   0  0  0  0  0  0  0  0  0  0  0  0
    3.3523    1.1104    0.0000 C   0  0  0  0  0  0  0  0  0  0  0  0
    2.6378    0.6979    0.0000 C   0  0  0  0  0  0  0  0  0  0  0  0
    1.9233    1.1104    0.0000 C   0  0  0  0  0  0  0  0  0  0  0  0
    1.1387    0.8555    0.0000 C   0  0  0  0  0  0  0  0  0  0  0  0
    0.6538    1.5229    0.0000 C   0  0  0  0  0  0  0  0  0  0  0  0
    1.1387    2.1904    0.0000 C   0  0  0  0  0  0  0  0  0  0  0  0
    1.9233    1.9354    0.0000 C   0  0  0  0  0  0  0  0  0  0  0  0
    2.6378    2.3479    0.0000 C   0  0  0  0  0  0  0  0  0  0  0  0
  1  2  1  0  0  0  0
  2  3  2  0  0  0  0
  2  4  2  0  0  0  0
  2  5  1  0  0  0  0
  5  6  2  0  0  0  0
  6  7  1  0  0  0  0
  7  8  2  0  0  0  0
  8  9  1  0  0  0  0
  9 10  1  0  0  0  0
 10 11  1  0  0  0  0
 11 12  1  0  0  0  0
  8 12  1  0  0  0  0
 12 13  2  0  0  0  0
  5 13  1  0  0  0  0
M  END
>  <Catalog ID>
Z45415660

>  <PlateID>
1198308-R-SPFL-13

>  <Well>
E09

>  <MW (desalted)>
197.254

>  <ClogP>
1.318

>  <HBD>
1

>  <TPSA>
60.160

>  <RotBonds>
1

$$$$

            

 11 12  0  0  0  0            999 V2000
    1.4289   -2.4750    0.0000 N   0  0  0  0  0  0  0  0  0  0  0  0
    1.4289   -1.6500    0.0000 C   0  0  0  0  0  0  0  0  0  0  0  0
    0.7145   -1.2375    0.0000 N   0  0  0  0  0  0  0  0  0  0  0  0
    0.7145   -0.4125    0.0000 C   0  0  0  0  0  0  0  0  0  0  0  0
    1.4289    0.0000    0.0000 C   0  0  0  0  0  0  0  0  0  0  0  0
    2.1434   -0.4125    0.0000 C   0  0  0  0  0  0  0  0  0  0  0  0
    2.8579    0.0000    0.0000 C   0  0  0  0  0  0  0  0  0  0  0  0
    3.5724   -0.4125    0.0000 C   0  0  0  0  0  0  0  0  0  0  0  0
    3.5724   -1.2375    0.0000 N   0  0  0  0  0  0  0  0  0  0  0  0
    2.8579   -1.6500    0.0000 C   0  0  0  0  0  0  0  0  0  0  0  0
    2.1434   -1.2375    0.0000 C   0  0  0  0  0  0  0  0  0  0  0  0
  1  2  1  0  0  0  0
  2  3  2  0  0  0  0
  3  4  1  0  0  0  0
  4  5  2  0  0  0  0
  5  6  1  0  0  0  0
  6  7  2  0  0  0  0
  7  8  1  0  0  0  0
  8  9  2  0  0  0  0
  9 10  1  0  0  0  0
 10 11  2  0  0  0  0
  2 11  1  0  0  0  0
  6 11  1  0  0  0  0
M  END
>  <Catalog ID>
Z1198323548

>  <PlateID>
1198308-R-SPFL-13

>  <Well>
E10

>  <MW (desalted)>
145.161

>  <ClogP>
0.636

>  <HBD>
1

>  <TPSA>
51.800

>  <RotBonds>
0

$$$$

            

 12 13  0  0  0  0            999 V2000
   -0.1781   -3.1062    0.0000 O   0  0  0  0  0  0  0  0  0  0  0  0
    0.0768   -2.3215    0.0000 C   0  0  0  0  0  0  0  0  0  0  0  0
    0.8838   -2.1500    0.0000 C   0  0  0  0  0  0  0  0  0  0  0  0
    1.1387   -1.3654    0.0000 N   0  0  0  0  0  0  0  0  0  0  0  0
    0.6538   -0.6979    0.0000 N   0  0  0  0  0  0  0  0  0  0  0  0
    1.1387   -0.0305    0.0000 C   0  0  0  0  0  0  0  0  0  0  0  0
    1.9233   -0.2854    0.0000 C   0  0  0  0  0  0  0  0  0  0  0  0
    2.6378    0.1271    0.0000 C   0  0  0  0  0  0  0  0  0  0  0  0
    3.3523   -0.2854    0.0000 C   0  0  0  0  0  0  0  0  0  0  0  0
    3.3523   -1.1104    0.0000 C   0  0  0  0  0  0  0  0  0  0  0  0
    2.6378   -1.5229    0.0000 C   0  0  0  0  0  0  0  0  0  0  0  0
    1.9233   -1.1104    0.0000 C   0  0  0  0  0  0  0  0  0  0  0  0
  1  2  1  0  0  0  0
  2  3  1  0  0  0  0
  3  4  1  0  0  0  0
  4  5  1  0  0  0  0
  5  6  2  0  0  0  0
  6  7  1  0  0  0  0
  7  8  2  0  0  0  0
  8  9  1  0  0  0  0
  9 10  2  0  0  0  0
 10 11  1  0  0  0  0
 11 12  2  0  0  0  0
  4 12  1  0  0  0  0
  7 12  1  0  0  0  0
M  END
>  <Catalog ID>
Z959322444

>  <PlateID>
1198308-R-SPFL-13

>  <Well>
E11

>  <MW (desalted)>
162.189

>  <ClogP>
0.949

>  <HBD>
1

>  <TPSA>
38.050

>  <RotBonds>
2

$$$$

            

 13 13  0  0  0  0            999 V2000
    0.0000    0.0000    0.0000 Cl  0  0  0  0  0  0  0  0  0  0  0  0
    2.3571   -1.4438    0.0000 N   0  0  0  0  0  0  0  0  0  0  0  0
    2.3571   -0.6188    0.0000 C   0  0  0  0  0  0  0  0  0  0  0  0
    3.0716   -0.2063    0.0000 C   0  0  0  0  0  0  0  0  0  0  0  0
    3.0716    0.6188    0.0000 C   0  0  0  0  0  0  0  0  0  0  0  0
    3.7861    1.0313    0.0000 O   0  0  0  0  0  0  0  0  0  0  0  0
    4.5006    0.6188    0.0000 C   0  0  0  0  0  0  0  0  0  0  0  0
    5.2150    1.0313    0.0000 C   0  0  0  0  0  0  0  0  0  0  0  0
    5.9295    0.6187    0.0000 C   0  0  0  0  0  0  0  0  0  0  0  0
    5.9295   -0.2063    0.0000 C   0  0  0  0  0  0  0  0  0  0  0  0
    5.2150   -0.6187    0.0000 C   0  0  0  0  0  0  0  0  0  0  0  0
    4.5006   -0.2062    0.0000 C   0  0  0  0  0  0  0  0  0  0  0  0
    3.7861   -0.6188    0.0000 C   0  0  0  0  0  0  0  0  0  0  0  0
  2  3  1  0  0  0  0
  3  4  1  0  0  0  0
  4  5  1  0  0  0  0
  5  6  1  0  0  0  0
  6  7  1  0  0  0  0
  7  8  2  0  0  0  0
  8  9  1  0  0  0  0
  9 10  2  0  0  0  0
 10 11  1  0  0  0  0
 11 12  2  0  0  0  0
  7 12  1  0  0  0  0
 12 13  1  0  0  0  0
  4 13  1  0  0  0  0
M  END
>  <Catalog ID>
Z96093367

>  <PlateID>
1198308-R-SPFL-13

>  <Well>
F02

>  <MW (desalted)>
163.216

>  <ClogP>
1.237

>  <HBD>
1

>  <TPSA>
35.250

>  <RotBonds>
1

$$$$

            

 12 13  0  0  1  0            999 V2000
    1.4289    0.0000    0.0000 O   0  0  0  0  0  0  0  0  0  0  0  0
    0.7145   -0.4125    0.0000 C   0  0  0  0  0  0  0  0  0  0  0  0
    0.0000    0.0000    0.0000 O   0  0  0  0  0  0  0  0  0  0  0  0
    0.7145   -1.2375    0.0000 C   0  0  1  0  0  0  0  0  0  0  0  0
    1.1270   -1.9520    0.0000 C   0  0  0  0  0  0  0  0  0  0  0  0
    0.3020   -1.9520    0.0000 C   0  0  1  0  0  0  0  0  0  0  0  0
   -0.4125   -2.3645    0.0000 C   0  0  0  0  0  0  0  0  0  0  0  0
   -0.4125   -3.1895    0.0000 C   0  0  0  0  0  0  0  0  0  0  0  0
   -1.1270   -3.6020    0.0000 C   0  0  0  0  0  0  0  0  0  0  0  0
   -1.8414   -3.1895    0.0000 C   0  0  0  0  0  0  0  0  0  0  0  0
   -1.8414   -2.3645    0.0000 C   0  0  0  0  0  0  0  0  0  0  0  0
   -1.1270   -1.9520    0.0000 C   0  0  0  0  0  0  0  0  0  0  0  0
  1  2  1  0  0  0  0
  2  3  2  0  0  0  0
  4  2  1  1  0  0  0
  4  5  1  0  0  0  0
  6  5  1  0  0  0  0
  4  6  1  0  0  0  0
  6  7  1  1  0  0  0
  7  8  2  0  0  0  0
  8  9  1  0  0  0  0
  9 10  2  0  0  0  0
 10 11  1  0  0  0  0
 11 12  2  0  0  0  0
  7 12  1  0  0  0  0
M  END
>  <Catalog ID>
Z1262510970

>  <PlateID>
1198308-R-SPFL-13

>  <Well>
F03

>  <MW (desalted)>
162.185

>  <ClogP>
1.948

>  <HBD>
1

>  <TPSA>
37.300

>  <RotBonds>
2

$$$$

            

 13 14  0  0  0  0            999 V2000
    0.0962   -1.4834    0.0000 C   0  0  0  0  0  0  0  0  0  0  0  0
    0.8106   -1.0709    0.0000 O   0  0  0  0  0  0  0  0  0  0  0  0
    0.8106   -0.2459    0.0000 C   0  0  0  0  0  0  0  0  0  0  0  0
    0.0962    0.1666    0.0000 C   0  0  0  0  0  0  0  0  0  0  0  0
    0.0962    0.9916    0.0000 C   0  0  0  0  0  0  0  0  0  0  0  0
    0.8106    1.4041    0.0000 C   0  0  0  0  0  0  0  0  0  0  0  0
    1.5251    0.9916    0.0000 C   0  0  0  0  0  0  0  0  0  0  0  0
    1.5251    0.1666    0.0000 C   0  0  0  0  0  0  0  0  0  0  0  0
    0.8106    2.2291    0.0000 C   0  0  0  0  0  0  0  0  0  0  0  0
    0.0962    2.6416    0.0000 O   0  0  0  0  0  0  0  0  0  0  0  0
    1.5251    2.6416    0.0000 O   0  0  0  0  0  0  0  0  0  0  0  0
    0.9481    0.3041    0.0000 C   0  0  0  0  0  0  0  0  0  0  0  0
    0.9481    0.8541    0.0000 C   0  0  0  0  0  0  0  0  0  0  0  0
  1  2  1  0  0  0  0
  2  3  1  0  0  0  0
  3  4  1  0  0  0  0
  4  5  1  0  0  0  0
  5  6  1  0  0  0  0
  6  7  1  0  0  0  0
  7  8  1  0  0  0  0
  3  8  1  0  0  0  0
  6  9  1  0  0  0  0
  9 10  2  0  0  0  0
  9 11  1  0  0  0  0
  3 12  1  0  0  0  0
 12 13  1  0  0  0  0
  6 13  1  0  0  0  0
M  END
>  <Catalog ID>
Z1262512569

>  <PlateID>
1198308-R-SPFL-13

>  <Well>
F04

>  <MW (desalted)>
184.232

>  <ClogP>
0.780

>  <HBD>
1

>  <TPSA>
46.530

>  <RotBonds>
2

$$$$

            

 16 17  0  0  0  0            999 V2000
    2.1434   -2.8875    0.0000 C   0  0  0  0  0  0  0  0  0  0  0  0
    1.4289   -2.4750    0.0000 C   0  0  0  0  0  0  0  0  0  0  0  0
    0.7145   -2.8875    0.0000 C   0  0  0  0  0  0  0  0  0  0  0  0
    0.7145   -3.7125    0.0000 C   0  0  0  0  0  0  0  0  0  0  0  0
    0.0000   -4.1250    0.0000 O   0  0  0  0  0  0  0  0  0  0  0  0
    1.4289   -4.1250    0.0000 O   0  0  0  0  0  0  0  0  0  0  0  0
    1.4289   -1.6500    0.0000 N   0  0  0  0  0  0  0  0  0  0  0  0
    0.7145   -1.2375    0.0000 C   0  0  0  0  0  0  0  0  0  0  0  0
    0.7145   -0.4125    0.0000 C   0  0  0  0  0  0  0  0  0  0  0  0
    1.4289    0.0000    0.0000 C   0  0  0  0  0  0  0  0  0  0  0  0
    2.1434   -0.4125    0.0000 C   0  0  0  0  0  0  0  0  0  0  0  0
    2.8579    0.0000    0.0000 C   0  0  0  0  0  0  0  0  0  0  0  0
    3.5724   -0.4125    0.0000 C   0  0  0  0  0  0  0  0  0  0  0  0
    3.5724   -1.2375    0.0000 C   0  0  0  0  0  0  0  0  0  0  0  0
    2.8579   -1.6500    0.0000 C   0  0  0  0  0  0  0  0  0  0  0  0
    2.1434   -1.2375    0.0000 C   0  0  0  0  0  0  0  0  0  0  0  0
  1  2  1  0  0  0  0
  2  3  1  0  0  0  0
  3  4  1  0  0  0  0
  4  5  2  0  0  0  0
  4  6  1  0  0  0  0
  2  7  1  0  0  0  0
  7  8  1  0  0  0  0
  8  9  1  0  0  0  0
  9 10  1  0  0  0  0
 10 11  1  0  0  0  0
 11 12  2  0  0  0  0
 12 13  1  0  0  0  0
 13 14  2  0  0  0  0
 14 15  1  0  0  0  0
 15 16  2  0  0  0  0
  7 16  1  0  0  0  0
 11 16  1  0  0  0  0
M  END
>  <Catalog ID>
Z431539910

>  <PlateID>
1198308-R-SPFL-13

>  <Well>
F05

>  <MW (desalted)>
219.280

>  <ClogP>
2.896

>  <HBD>
1

>  <TPSA>
40.540

>  <RotBonds>
3

$$$$

            

 15 16  0  0  0  0            999 V2000
    0.0000   -4.1250    0.0000 O   0  0  0  0  0  0  0  0  0  0  0  0
    0.7145   -3.7125    0.0000 C   0  0  0  0  0  0  0  0  0  0  0  0
    1.4289   -4.1250    0.0000 O   0  0  0  0  0  0  0  0  0  0  0  0
    0.7145   -2.8875    0.0000 C   0  0  0  0  0  0  0  0  0  0  0  0
    1.4289   -2.4750    0.0000 C   0  0  0  0  0  0  0  0  0  0  0  0
    1.4289   -1.6500    0.0000 C   0  0  0  0  0  0  0  0  0  0  0  0
    0.7145   -1.2375    0.0000 C   0  0  0  0  0  0  0  0  0  0  0  0
    0.7145   -0.4125    0.0000 C   0  0  0  0  0  0  0  0  0  0  0  0
    1.4289    0.0000    0.0000 N   0  0  0  0  0  0  0  0  0  0  0  0
    2.1434   -0.4125    0.0000 C   0  0  0  0  0  0  0  0  0  0  0  0
    2.8579    0.0000    0.0000 C   0  0  0  0  0  0  0  0  0  0  0  0
    3.5724   -0.4125    0.0000 C   0  0  0  0  0  0  0  0  0  0  0  0
    3.5724   -1.2375    0.0000 C   0  0  0  0  0  0  0  0  0  0  0  0
    2.8579   -1.6500    0.0000 C   0  0  0  0  0  0  0  0  0  0  0  0
    2.1434   -1.2375    0.0000 C   0  0  0  0  0  0  0  0  0  0  0  0
  1  2  1  0  0  0  0
  2  3  2  0  0  0  0
  2  4  1  0  0  0  0
  4  5  1  0  0  0  0
  5  6  1  0  0  0  0
  6  7  2  0  0  0  0
  7  8  1  0  0  0  0
  8  9  2  0  0  0  0
  9 10  1  0  0  0  0
 10 11  2  0  0  0  0
 11 12  1  0  0  0  0
 12 13  2  0  0  0  0
 13 14  1  0  0  0  0
 14 15  2  0  0  0  0
  6 15  1  0  0  0  0
 10 15  1  0  0  0  0
M  END
>  <Catalog ID>
Z1165164633

>  <PlateID>
1198308-R-SPFL-13

>  <Well>
F06

>  <MW (desalted)>
201.221

>  <ClogP>
1.790

>  <HBD>
1

>  <TPSA>
50.190

>  <RotBonds>
3

$$$$

            

 13 14  0  0  0  0            999 V2000
   -0.1105    1.8414    0.0000 O   0  0  0  0  0  0  0  0  0  0  0  0
    0.3020    1.1270    0.0000 C   0  0  0  0  0  0  0  0  0  0  0  0
    1.1270    1.1270    0.0000 C   0  0  0  0  0  0  0  0  0  0  0  0
    1.5395    0.4125    0.0000 C   0  0  0  0  0  0  0  0  0  0  0  0
    1.9520    1.1270    0.0000 C   0  0  0  0  0  0  0  0  0  0  0  0
    2.7770    1.1270    0.0000 C   0  0  0  0  0  0  0  0  0  0  0  0
    3.1895    0.4125    0.0000 C   0  0  0  0  0  0  0  0  0  0  0  0
    2.7770   -0.3020    0.0000 C   0  0  0  0  0  0  0  0  0  0  0  0
    1.9520   -0.3020    0.0000 C   0  0  0  0  0  0  0  0  0  0  0  0
    1.1270   -0.3020    0.0000 N   0  0  0  0  0  0  0  0  0  0  0  0
    0.3020   -0.3020    0.0000 C   0  0  0  0  0  0  0  0  0  0  0  0
   -0.1105   -1.0164    0.0000 O   0  0  0  0  0  0  0  0  0  0  0  0
   -0.1105    0.4125    0.0000 N   0  0  0  0  0  0  0  0  0  0  0  0
  1  2  2  0  0  0  0
  2  3  1  0  0  0  0
  3  4  1  0  0  0  0
  4  5  1  0  0  0  0
  5  6  1  0  0  0  0
  6  7  1  0  0  0  0
  7  8  1  0  0  0  0
  8  9  1  0  0  0  0
  4  9  1  0  0  0  0
  4 10  1  0  0  0  0
 10 11  1  0  0  0  0
 11 12  2  0  0  0  0
 11 13  1  0  0  0  0
  2 13  1  0  0  0  0
M  END
>  <Catalog ID>
Z1238843428

>  <PlateID>
1198308-R-SPFL-13

>  <Well>
F07

>  <MW (desalted)>
182.220

>  <ClogP>
0.759

>  <HBD>
2

>  <TPSA>
58.200

>  <RotBonds>
0

$$$$

            

 12 13  0  0  0  0            999 V2000
    1.3222    4.7652    0.0000 N   0  0  0  0  0  0  0  0  0  0  0  0
    2.0367    4.3527    0.0000 C   0  0  0  0  0  0  0  0  0  0  0  0
    2.7512    4.7652    0.0000 N   0  0  0  0  0  0  0  0  0  0  0  0
    3.4656    4.3527    0.0000 C   0  0  0  0  0  0  0  0  0  0  0  0
    3.4656    3.5277    0.0000 C   0  0  0  0  0  0  0  0  0  0  0  0
    2.7512    3.1152    0.0000 C   0  0  0  0  0  0  0  0  0  0  0  0
    2.0367    3.5277    0.0000 N   0  0  0  0  0  0  0  0  0  0  0  0
    2.7512    2.2902    0.0000 C   0  0  0  0  0  0  0  0  0  0  0  0
    3.4186    1.8053    0.0000 C   0  0  0  0  0  0  0  0  0  0  0  0
    3.1637    1.0206    0.0000 C   0  0  0  0  0  0  0  0  0  0  0  0
    2.3387    1.0206    0.0000 C   0  0  0  0  0  0  0  0  0  0  0  0
    2.0837    1.8053    0.0000 O   0  0  0  0  0  0  0  0  0  0  0  0
  1  2  1  0  0  0  0
  2  3  2  0  0  0  0
  3  4  1  0  0  0  0
  4  5  2  0  0  0  0
  5  6  1  0  0  0  0
  6  7  2  0  0  0  0
  2  7  1  0  0  0  0
  6  8  1  0  0  0  0
  8  9  2  0  0  0  0
  9 10  1  0  0  0  0
 10 11  2  0  0  0  0
 11 12  1  0  0  0  0
  8 12  1  0  0  0  0
M  END
>  <Catalog ID>
Z991536774

>  <PlateID>
1198308-R-SPFL-13

>  <Well>
F08

>  <MW (desalted)>
161.161

>  <ClogP>
1.160

>  <HBD>
1

>  <TPSA>
64.940

>  <RotBonds>
1

$$$$

            

 11 12  0  0  0  0            999 V2000
    0.3020   -2.5070    0.0000 C   0  0  0  0  0  0  0  0  0  0  0  0
    0.0470   -1.7224    0.0000 N   0  0  0  0  0  0  0  0  0  0  0  0
    0.7145   -1.2375    0.0000 C   0  0  0  0  0  0  0  0  0  0  0  0
    1.3819   -1.7224    0.0000 N   0  0  0  0  0  0  0  0  0  0  0  0
    1.1270   -2.5070    0.0000 N   0  0  0  0  0  0  0  0  0  0  0  0
    0.7145   -0.4125    0.0000 C   0  0  0  0  0  0  0  0  0  0  0  0
    0.0000    0.0000    0.0000 C   0  0  0  0  0  0  0  0  0  0  0  0
    0.0000    0.8250    0.0000 C   0  0  0  0  0  0  0  0  0  0  0  0
    0.7145    1.2375    0.0000 C   0  0  0  0  0  0  0  0  0  0  0  0
    1.4289    0.8250    0.0000 C   0  0  0  0  0  0  0  0  0  0  0  0
    1.4289    0.0000    0.0000 N   0  0  0  0  0  0  0  0  0  0  0  0
  1  2  2  0  0  0  0
  2  3  1  0  0  0  0
  3  4  2  0  0  0  0
  4  5  1  0  0  0  0
  1  5  1  0  0  0  0
  3  6  1  0  0  0  0
  6  7  2  0  0  0  0
  7  8  1  0  0  0  0
  8  9  2  0  0  0  0
  9 10  1  0  0  0  0
 10 11  2  0  0  0  0
  6 11  1  0  0  0  0
M  END
>  <Catalog ID>
Z1201627039

>  <PlateID>
1198308-R-SPFL-13

>  <Well>
F09

>  <MW (desalted)>
146.149

>  <ClogP>
0.659

>  <HBD>
1

>  <TPSA>
54.460

>  <RotBonds>
1

$$$$

            

 12 13  0  0  0  0            999 V2000
    1.2564   -0.1802    0.0000 O   0  0  0  0  0  0  0  0  0  0  0  0
    1.2564   -1.0052    0.0000 C   0  0  0  0  0  0  0  0  0  0  0  0
    1.9239   -1.4901    0.0000 C   0  0  0  0  0  0  0  0  0  0  0  0
    1.6689   -2.2748    0.0000 N   0  0  0  0  0  0  0  0  0  0  0  0
    2.1538   -2.9422    0.0000 C   0  0  0  0  0  0  0  0  0  0  0  0
    2.9788   -2.9422    0.0000 C   0  0  0  0  0  0  0  0  0  0  0  0
    3.2338   -3.7268    0.0000 C   0  0  0  0  0  0  0  0  0  0  0  0
    2.5663   -4.2117    0.0000 C   0  0  0  0  0  0  0  0  0  0  0  0
    1.8989   -3.7268    0.0000 C   0  0  0  0  0  0  0  0  0  0  0  0
    0.8439   -2.2748    0.0000 C   0  0  0  0  0  0  0  0  0  0  0  0
    0.3590   -2.9422    0.0000 O   0  0  0  0  0  0  0  0  0  0  0  0
    0.5890   -1.4901    0.0000 N   0  0  0  0  0  0  0  0  0  0  0  0
  1  2  2  0  0  0  0
  2  3  1  0  0  0  0
  3  4  1  0  0  0  0
  4  5  1  0  0  0  0
  5  6  1  0  0  0  0
  6  7  1  0  0  0  0
  7  8  1  0  0  0  0
  8  9  1  0  0  0  0
  5  9  1  0  0  0  0
  4 10  1  0  0  0  0
 10 11  2  0  0  0  0
 10 12  1  0  0  0  0
  2 12  1  0  0  0  0
M  END
>  <Catalog ID>
Z594218004

>  <PlateID>
1198308-R-SPFL-13

>  <Well>
F10

>  <MW (desalted)>
168.193

>  <ClogP>
0.377

>  <HBD>
1

>  <TPSA>
49.410

>  <RotBonds>
1

$$$$

            

 13 14  0  0  0  0            999 V2000
    4.4643    1.3946    0.0000 O   0  0  0  0  0  0  0  0  0  0  0  0
    3.7021    1.7103    0.0000 C   0  0  0  0  0  0  0  0  0  0  0  0
    3.1187    1.1270    0.0000 C   0  0  0  0  0  0  0  0  0  0  0  0
    2.2937    1.1270    0.0000 C   0  0  0  0  0  0  0  0  0  0  0  0
    1.7103    1.7103    0.0000 C   0  0  0  0  0  0  0  0  0  0  0  0
    0.9959    1.2978    0.0000 C   0  0  0  0  0  0  0  0  0  0  0  0
    0.2814    1.7103    0.0000 C   0  0  0  0  0  0  0  0  0  0  0  0
    0.2814    2.5353    0.0000 C   0  0  0  0  0  0  0  0  0  0  0  0
    0.9959    2.9478    0.0000 C   0  0  0  0  0  0  0  0  0  0  0  0
    1.7103    2.5353    0.0000 C   0  0  0  0  0  0  0  0  0  0  0  0
    2.2937    3.1187    0.0000 C   0  0  0  0  0  0  0  0  0  0  0  0
    3.1187    3.1187    0.0000 C   0  0  0  0  0  0  0  0  0  0  0  0
    3.7021    2.5353    0.0000 N   0  0  0  0  0  0  0  0  0  0  0  0
  1  2  2  0  0  0  0
  2  3  1  0  0  0  0
  3  4  1  0  0  0  0
  4  5  1  0  0  0  0
  5  6  2  0  0  0  0
  6  7  1  0  0  0  0
  7  8  2  0  0  0  0
  8  9  1  0  0  0  0
  9 10  2  0  0  0  0
  5 10  1  0  0  0  0
 10 11  1  0  0  0  0
 11 12  1  0  0  0  0
 12 13  1  0  0  0  0
  2 13  1  0  0  0  0
M  END
>  <Catalog ID>
Z1255361336

>  <PlateID>
1198308-R-SPFL-13

>  <Well>
F11

>  <MW (desalted)>
175.227

>  <ClogP>
1.214

>  <HBD>
1

>  <TPSA>
29.100

>  <RotBonds>
0

$$$$

            

 11 12  0  0  0  0            999 V2000
    0.5436   -0.4833    0.0000 N   0  0  0  0  0  0  0  0  0  0  0  0
    1.1270   -1.0666    0.0000 C   0  0  0  0  0  0  0  0  0  0  0  0
    1.7103   -1.6500    0.0000 C   0  0  0  0  0  0  0  0  0  0  0  0
    1.1270   -2.2334    0.0000 C   0  0  0  0  0  0  0  0  0  0  0  0
    0.5436   -1.6500    0.0000 C   0  0  0  0  0  0  0  0  0  0  0  0
    1.7103   -0.4833    0.0000 C   0  0  0  0  0  0  0  0  0  0  0  0
    1.4968    0.3136    0.0000 C   0  0  0  0  0  0  0  0  0  0  0  0
    2.0802    0.8970    0.0000 C   0  0  0  0  0  0  0  0  0  0  0  0
    2.8771    0.6835    0.0000 N   0  0  0  0  0  0  0  0  0  0  0  0
    3.0906   -0.1134    0.0000 C   0  0  0  0  0  0  0  0  0  0  0  0
    2.5072   -0.6968    0.0000 C   0  0  0  0  0  0  0  0  0  0  0  0
  1  2  1  0  0  0  0
  2  3  1  0  0  0  0
  3  4  1  0  0  0  0
  4  5  1  0  0  0  0
  2  5  1  0  0  0  0
  2  6  1  0  0  0  0
  6  7  2  0  0  0  0
  7  8  1  0  0  0  0
  8  9  2  0  0  0  0
  9 10  1  0  0  0  0
 10 11  2  0  0  0  0
  6 11  1  0  0  0  0
M  END
>  <Catalog ID>
Z1198261773

>  <PlateID>
1198308-R-SPFL-13

>  <Well>
G02

>  <MW (desalted)>
148.205

>  <ClogP>
0.500

>  <HBD>
1

>  <TPSA>
38.910

>  <RotBonds>
1

$$$$

            

 14 15  0  0  0  0            999 V2000
    0.0000    0.0000    0.0000 O   0  0  0  0  0  0  0  0  0  0  0  0
    0.7145   -0.4125    0.0000 C   0  0  0  0  0  0  0  0  0  0  0  0
    1.4289   -0.0000    0.0000 O   0  0  0  0  0  0  0  0  0  0  0  0
    0.7145   -1.2375    0.0000 C   0  0  0  0  0  0  0  0  0  0  0  0
    1.3819   -1.7224    0.0000 C   0  0  0  0  0  0  0  0  0  0  0  0
    1.1270   -2.5070    0.0000 C   0  0  0  0  0  0  0  0  0  0  0  0
    0.3020   -2.5070    0.0000 O   0  0  0  0  0  0  0  0  0  0  0  0
    0.0470   -1.7224    0.0000 N   0  0  0  0  0  0  0  0  0  0  0  0
    1.6119   -3.1745    0.0000 C   0  0  0  0  0  0  0  0  0  0  0  0
    2.4324   -3.0882    0.0000 C   0  0  0  0  0  0  0  0  0  0  0  0
    2.9173   -3.7557    0.0000 C   0  0  0  0  0  0  0  0  0  0  0  0
    2.5817   -4.5094    0.0000 C   0  0  0  0  0  0  0  0  0  0  0  0
    1.7613   -4.5956    0.0000 C   0  0  0  0  0  0  0  0  0  0  0  0
    1.2763   -3.9282    0.0000 C   0  0  0  0  0  0  0  0  0  0  0  0
  1  2  1  0  0  0  0
  2  3  2  0  0  0  0
  2  4  1  0  0  0  0
  4  5  1  0  0  0  0
  5  6  2  0  0  0  0
  6  7  1  0  0  0  0
  7  8  1  0  0  0  0
  4  8  2  0  0  0  0
  6  9  1  0  0  0  0
  9 10  2  0  0  0  0
 10 11  1  0  0  0  0
 11 12  2  0  0  0  0
 12 13  1  0  0  0  0
 13 14  2  0  0  0  0
  9 14  1  0  0  0  0
M  END
>  <Catalog ID>
Z150871934

>  <PlateID>
1198308-R-SPFL-13

>  <Well>
G03

>  <MW (desalted)>
189.167

>  <ClogP>
2.445

>  <HBD>
1

>  <TPSA>
63.330

>  <RotBonds>
2

$$$$

            

 15 16  0  0  0  0            999 V2000
   -0.7145   -2.0625    0.0000 F   0  0  0  0  0  0  0  0  0  0  0  0
    0.0000   -1.6500    0.0000 C   0  0  0  0  0  0  0  0  0  0  0  0
    0.4125   -2.3645    0.0000 F   0  0  0  0  0  0  0  0  0  0  0  0
   -0.4125   -0.9355    0.0000 F   0  0  0  0  0  0  0  0  0  0  0  0
    0.7145   -1.2375    0.0000 C   0  0  0  0  0  0  0  0  0  0  0  0
    0.7145   -0.4125    0.0000 C   0  0  0  0  0  0  0  0  0  0  0  0
    1.4289    0.0000    0.0000 C   0  0  0  0  0  0  0  0  0  0  0  0
    2.1434   -0.4125    0.0000 C   0  0  0  0  0  0  0  0  0  0  0  0
    2.8579    0.0000    0.0000 N   0  0  0  0  0  0  0  0  0  0  0  0
    3.5724   -0.4125    0.0000 C   0  0  0  0  0  0  0  0  0  0  0  0
    3.5724   -1.2375    0.0000 C   0  0  0  0  0  0  0  0  0  0  0  0
    4.2868   -1.6500    0.0000 O   0  0  0  0  0  0  0  0  0  0  0  0
    2.8579   -1.6500    0.0000 N   0  0  0  0  0  0  0  0  0  0  0  0
    2.1434   -1.2375    0.0000 C   0  0  0  0  0  0  0  0  0  0  0  0
    1.4289   -1.6500    0.0000 C   0  0  0  0  0  0  0  0  0  0  0  0
  1  2  1  0  0  0  0
  2  3  1  0  0  0  0
  2  4  1  0  0  0  0
  2  5  1  0  0  0  0
  5  6  2  0  0  0  0
  6  7  1  0  0  0  0
  7  8  2  0  0  0  0
  8  9  1  0  0  0  0
  9 10  1  0  0  0  0
 10 11  1  0  0  0  0
 11 12  2  0  0  0  0
 11 13  1  0  0  0  0
 13 14  1  0  0  0  0
  8 14  1  0  0  0  0
 14 15  2  0  0  0  0
  5 15  1  0  0  0  0
M  END
>  <Catalog ID>
Z147641710

>  <PlateID>
1198308-R-SPFL-13

>  <Well>
G04

>  <MW (desalted)>
216.160

>  <ClogP>
1.977

>  <HBD>
2

>  <TPSA>
41.130

>  <RotBonds>
1

$$$$

            

 12 11  0  0  0  0            999 V2000
    0.0000    0.0000    0.0000 Cl  0  0  0  0  0  0  0  0  0  0  0  0
    2.0036    0.0000    0.0000 Cl  0  0  0  0  0  0  0  0  0  0  0  0
   -1.4289   -2.0625    0.0000 C   0  0  0  0  0  0  0  0  0  0  0  0
   -0.7145   -1.6500    0.0000 C   0  0  0  0  0  0  0  0  0  0  0  0
   -0.0000   -2.0625    0.0000 C   0  0  0  0  0  0  0  0  0  0  0  0
    0.7145   -1.6500    0.0000 C   0  0  0  0  0  0  0  0  0  0  0  0
    1.4289   -2.0625    0.0000 C   0  0  0  0  0  0  0  0  0  0  0  0
    1.4289   -2.8875    0.0000 C   0  0  0  0  0  0  0  0  0  0  0  0
    0.7145   -3.3000    0.0000 N   0  0  0  0  0  0  0  0  0  0  0  0
   -0.0000   -2.8875    0.0000 C   0  0  0  0  0  0  0  0  0  0  0  0
   -0.7145   -3.3000    0.0000 C   0  0  0  0  0  0  0  0  0  0  0  0
   -1.4289   -2.8875    0.0000 N   0  0  0  0  0  0  0  0  0  0  0  0
  3  4  1  0  0  0  0
  4  5  1  0  0  0  0
  5  6  2  0  0  0  0
  6  7  1  0  0  0  0
  7  8  2  0  0  0  0
  8  9  1  0  0  0  0
  9 10  2  0  0  0  0
  5 10  1  0  0  0  0
 10 11  1  0  0  0  0
 11 12  1  0  0  0  0
  3 12  1  0  0  0  0
M  END
>  <Catalog ID>
Z2517097746

>  <PlateID>
1198308-R-SPFL-13

>  <Well>
G05

>  <MW (desalted)>
134.178

>  <ClogP>
0.098

>  <HBD>
1

>  <TPSA>
24.920

>  <RotBonds>
0

$$$$

            

 11 11  0  0  0  0            999 V2000
    2.5875    2.3582    0.0000 O   0  0  0  0  0  0  0  0  0  0  0  0
    2.0572    1.7262    0.0000 C   0  0  0  0  0  0  0  0  0  0  0  0
    2.3394    0.9510    0.0000 O   0  0  0  0  0  0  0  0  0  0  0  0
    1.2448    1.8695    0.0000 C   0  0  0  0  0  0  0  0  0  0  0  0
    0.7145    1.2375    0.0000 C   0  0  0  0  0  0  0  0  0  0  0  0
    0.1842    1.8695    0.0000 O   0  0  0  0  0  0  0  0  0  0  0  0
    1.4289    0.8250    0.0000 C   0  0  0  0  0  0  0  0  0  0  0  0
    1.4289   -0.0000    0.0000 C   0  0  0  0  0  0  0  0  0  0  0  0
    0.7145   -0.4125    0.0000 C   0  0  0  0  0  0  0  0  0  0  0  0
    0.0000    0.0000    0.0000 C   0  0  0  0  0  0  0  0  0  0  0  0
    0.0000    0.8250    0.0000 C   0  0  0  0  0  0  0  0  0  0  0  0
  1  2  1  0  0  0  0
  2  3  2  0  0  0  0
  2  4  1  0  0  0  0
  4  5  1  0  0  0  0
  5  6  1  0  0  0  0
  5  7  1  0  0  0  0
  7  8  1  0  0  0  0
  8  9  1  0  0  0  0
  9 10  1  0  0  0  0
 10 11  1  0  0  0  0
  5 11  1  0  0  0  0
M  END
>  <Catalog ID>
Z982131964

>  <PlateID>
1198308-R-SPFL-13

>  <Well>
G06

>  <MW (desalted)>
158.195

>  <ClogP>
1.074

>  <HBD>
2

>  <TPSA>
57.530

>  <RotBonds>
2

$$$$

            

 15 16  0  0  0  0            999 V2000
   -2.1434    2.0625    0.0000 N   0  0  0  0  0  0  0  0  0  0  0  0
   -2.1434    1.2375    0.0000 C   0  0  0  0  0  0  0  0  0  0  0  0
   -1.4289    0.8250    0.0000 N   0  0  0  0  0  0  0  0  0  0  0  0
   -1.4289   -0.0000    0.0000 C   0  0  0  0  0  0  0  0  0  0  0  0
   -0.7145   -0.4125    0.0000 C   0  0  0  0  0  0  0  0  0  0  0  0
   -0.7145   -1.2375    0.0000 C   0  0  0  0  0  0  0  0  0  0  0  0
   -1.4289   -1.6500    0.0000 C   0  0  0  0  0  0  0  0  0  0  0  0
   -2.1434   -1.2375    0.0000 C   0  0  0  0  0  0  0  0  0  0  0  0
   -2.1434   -0.4125    0.0000 C   0  0  0  0  0  0  0  0  0  0  0  0
   -2.8579    0.8250    0.0000 N   0  0  0  0  0  0  0  0  0  0  0  0
   -2.8579   -0.0000    0.0000 C   0  0  0  0  0  0  0  0  0  0  0  0
   -3.5724   -0.4125    0.0000 C   0  0  0  0  0  0  0  0  0  0  0  0
   -4.2868   -0.0000    0.0000 C   0  0  0  0  0  0  0  0  0  0  0  0
   -4.2868    0.8250    0.0000 C   0  0  0  0  0  0  0  0  0  0  0  0
   -3.5724    1.2375    0.0000 C   0  0  0  0  0  0  0  0  0  0  0  0
  1  2  1  0  0  0  0
  2  3  2  0  0  0  0
  3  4  1  4  0  0  0
  4  5  2  0  0  0  0
  5  6  1  0  0  0  0
  6  7  2  0  0  0  0
  7  8  1  0  0  0  0
  8  9  2  0  0  0  0
  4  9  1  0  0  0  0
  2 10  1  0  0  0  0
 10 11  1  0  0  0  0
 11 12  1  0  0  0  0
 12 13  1  0  0  0  0
 13 14  1  0  0  0  0
 14 15  1  0  0  0  0
 10 15  1  0  0  0  0
M  END
>  <Catalog ID>
Z1267875532

>  <PlateID>
1198308-R-SPFL-13

>  <Well>
G07

>  <MW (desalted)>
203.283

>  <ClogP>
2.629

>  <HBD>
1

>  <TPSA>
41.620

>  <RotBonds>
1

$$$$

            

 13 13  0  0  0  0            999 V2000
    0.0000    0.0000    0.0000 Cl  0  0  0  0  0  0  0  0  0  0  0  0
    2.3571   -1.4438    0.0000 N   0  0  0  0  0  0  0  0  0  0  0  0
    2.3571   -0.6188    0.0000 C   0  0  0  0  0  0  0  0  0  0  0  0
    3.0716   -0.2063    0.0000 C   0  0  0  0  0  0  0  0  0  0  0  0
    3.0716    0.6188    0.0000 C   0  0  0  0  0  0  0  0  0  0  0  0
    3.7861    1.0313    0.0000 S   0  0  0  0  0  0  0  0  0  0  0  0
    4.5006    0.6188    0.0000 C   0  0  0  0  0  0  0  0  0  0  0  0
    5.2150    1.0313    0.0000 C   0  0  0  0  0  0  0  0  0  0  0  0
    5.9295    0.6187    0.0000 C   0  0  0  0  0  0  0  0  0  0  0  0
    5.9295   -0.2063    0.0000 C   0  0  0  0  0  0  0  0  0  0  0  0
    5.2150   -0.6187    0.0000 C   0  0  0  0  0  0  0  0  0  0  0  0
    4.5006   -0.2062    0.0000 C   0  0  0  0  0  0  0  0  0  0  0  0
    3.7861   -0.6188    0.0000 O   0  0  0  0  0  0  0  0  0  0  0  0
  2  3  1  0  0  0  0
  3  4  1  0  0  0  0
  4  5  1  0  0  0  0
  5  6  1  0  0  0  0
  6  7  1  0  0  0  0
  7  8  2  0  0  0  0
  8  9  1  0  0  0  0
  9 10  2  0  0  0  0
 10 11  1  0  0  0  0
 11 12  2  0  0  0  0
  7 12  1  0  0  0  0
 12 13  1  0  0  0  0
  4 13  1  0  0  0  0
M  END
>  <Catalog ID>
Z2379088782

>  <PlateID>
1198308-R-SPFL-13

>  <Well>
G08

>  <MW (desalted)>
181.255

>  <ClogP>
1.697

>  <HBD>
1

>  <TPSA>
35.250

>  <RotBonds>
1

$$$$

            

 13 14  0  0  0  0            999 V2000
    2.0367   -0.4741    0.0000 O   0  0  0  0  0  0  0  0  0  0  0  0
    2.0367   -1.2991    0.0000 C   0  0  0  0  0  0  0  0  0  0  0  0
    2.7041   -1.7840    0.0000 C   0  0  0  0  0  0  0  0  0  0  0  0
    2.4492   -2.5687    0.0000 C   0  0  0  0  0  0  0  0  0  0  0  0
    1.6242   -2.5687    0.0000 N   0  0  0  0  0  0  0  0  0  0  0  0
    1.1393   -3.2361    0.0000 C   0  0  0  0  0  0  0  0  0  0  0  0
    0.3188   -3.1499    0.0000 C   0  0  0  0  0  0  0  0  0  0  0  0
   -0.1661   -3.8173    0.0000 C   0  0  0  0  0  0  0  0  0  0  0  0
   -0.9866   -3.7311    0.0000 C   0  0  0  0  0  0  0  0  0  0  0  0
   -1.3222   -2.9774    0.0000 C   0  0  0  0  0  0  0  0  0  0  0  0
   -0.8372   -2.3099    0.0000 C   0  0  0  0  0  0  0  0  0  0  0  0
   -0.0168   -2.3962    0.0000 C   0  0  0  0  0  0  0  0  0  0  0  0
    1.3693   -1.7840    0.0000 C   0  0  0  0  0  0  0  0  0  0  0  0
  1  2  1  0  0  0  0
  2  3  1  0  0  0  0
  3  4  1  0  0  0  0
  4  5  1  0  0  0  0
  5  6  1  0  0  0  0
  6  7  1  0  0  0  0
  7  8  2  0  0  0  0
  8  9  1  0  0  0  0
  9 10  2  0  0  0  0
 10 11  1  0  0  0  0
 11 12  2  0  0  0  0
  7 12  1  0  0  0  0
  5 13  1  0  0  0  0
  2 13  1  0  0  0  0
M  END
>  <Catalog ID>
Z370712446

>  <PlateID>
1198308-R-SPFL-13

>  <Well>
G09

>  <MW (desalted)>
177.243

>  <ClogP>
1.356

>  <HBD>
1

>  <TPSA>
23.470

>  <RotBonds>
2

$$$$

            

 11 12  0  0  0  0            999 V2000
    0.5057    2.4958    0.0000 O   0  0  0  0  0  0  0  0  0  0  0  0
    1.1188    1.9438    0.0000 C   0  0  0  0  0  0  0  0  0  0  0  0
    0.9473    1.1368    0.0000 O   0  0  0  0  0  0  0  0  0  0  0  0
    1.9034    2.1987    0.0000 C   0  0  0  0  0  0  0  0  0  0  0  0
    2.1584    2.9834    0.0000 N   0  0  0  0  0  0  0  0  0  0  0  0
    2.9834    2.9834    0.0000 C   0  0  0  0  0  0  0  0  0  0  0  0
    3.2383    2.1987    0.0000 O   0  0  0  0  0  0  0  0  0  0  0  0
    2.5709    1.7138    0.0000 C   0  0  0  0  0  0  0  0  0  0  0  0
    2.5709    0.8888    0.0000 C   0  0  0  0  0  0  0  0  0  0  0  0
    2.9834    0.1743    0.0000 C   0  0  0  0  0  0  0  0  0  0  0  0
    2.1584    0.1743    0.0000 C   0  0  0  0  0  0  0  0  0  0  0  0
  1  2  1  0  0  0  0
  2  3  2  0  0  0  0
  2  4  1  0  0  0  0
  4  5  1  0  0  0  0
  5  6  2  0  0  0  0
  6  7  1  0  0  0  0
  7  8  1  0  0  0  0
  4  8  2  0  0  0  0
  8  9  1  0  0  0  0
  9 10  1  0  0  0  0
 10 11  1  0  0  0  0
  9 11  1  0  0  0  0
M  END
>  <Catalog ID>
Z838909232

>  <PlateID>
1198308-R-SPFL-13

>  <Well>
G10

>  <MW (desalted)>
153.135

>  <ClogP>
-0.212

>  <HBD>
1

>  <TPSA>
63.330

>  <RotBonds>
2

$$$$

            

 10 10  0  0  0  0            999 V2000
   -0.1467    3.1768    0.0000 C   0  0  0  0  0  0  0  0  0  0  0  0
   -0.1467    2.3518    0.0000 C   0  0  0  0  0  0  0  0  0  0  0  0
   -0.8612    1.9393    0.0000 C   0  0  0  0  0  0  0  0  0  0  0  0
    0.5678    1.9393    0.0000 N   0  0  0  0  0  0  0  0  0  0  0  0
    0.5678    1.1143    0.0000 C   0  0  0  0  0  0  0  0  0  0  0  0
    1.2352    0.6294    0.0000 N   0  0  0  0  0  0  0  0  0  0  0  0
    0.9803   -0.1553    0.0000 C   0  0  0  0  0  0  0  0  0  0  0  0
    1.4652   -0.8227    0.0000 C   0  0  0  0  0  0  0  0  0  0  0  0
    0.1553   -0.1553    0.0000 N   0  0  0  0  0  0  0  0  0  0  0  0
   -0.0997    0.6294    0.0000 O   0  0  0  0  0  0  0  0  0  0  0  0
  1  2  1  0  0  0  0
  2  3  1  0  0  0  0
  2  4  1  0  0  0  0
  4  5  1  0  0  0  0
  5  6  2  0  0  0  0
  6  7  1  0  0  0  0
  7  8  1  0  0  0  0
  7  9  2  0  0  0  0
  9 10  1  0  0  0  0
  5 10  1  0  0  0  0
M  END
>  <Catalog ID>
Z992945134

>  <PlateID>
1198308-R-SPFL-13

>  <Well>
G11

>  <MW (desalted)>
141.171

>  <ClogP>
1.403

>  <HBD>
1

>  <TPSA>
50.950

>  <RotBonds>
2

$$$$

            

 12 13  0  0  0  0            999 V2000
   -0.6078   -0.4741    0.0000 C   0  0  0  0  0  0  0  0  0  0  0  0
   -1.3222   -0.0616    0.0000 C   0  0  0  0  0  0  0  0  0  0  0  0
   -2.0367   -0.4741    0.0000 C   0  0  0  0  0  0  0  0  0  0  0  0
   -2.7512   -0.0616    0.0000 C   0  0  0  0  0  0  0  0  0  0  0  0
   -2.7512    0.7634    0.0000 C   0  0  0  0  0  0  0  0  0  0  0  0
   -2.0367    1.1759    0.0000 C   0  0  0  0  0  0  0  0  0  0  0  0
   -1.3222    0.7634    0.0000 N   0  0  0  0  0  0  0  0  0  0  0  0
   -0.6078   -1.2991    0.0000 N   0  0  0  0  0  0  0  0  0  0  0  0
    0.0597   -1.7840    0.0000 C   0  0  0  0  0  0  0  0  0  0  0  0
   -0.1953   -2.5687    0.0000 C   0  0  0  0  0  0  0  0  0  0  0  0
   -1.0203   -2.5687    0.0000 N   0  0  0  0  0  0  0  0  0  0  0  0
   -1.2752   -1.7840    0.0000 C   0  0  0  0  0  0  0  0  0  0  0  0
  1  2  1  0  0  0  0
  2  3  2  0  0  0  0
  3  4  1  0  0  0  0
  4  5  2  0  0  0  0
  5  6  1  0  0  0  0
  6  7  2  0  0  0  0
  2  7  1  0  0  0  0
  1  8  1  0  0  0  0
  8  9  1  0  0  0  0
  9 10  2  0  0  0  0
 10 11  1  0  0  0  0
 11 12  2  0  0  0  0
  8 12  1  0  0  0  0
M  END
>  <Catalog ID>
Z1157796358

>  <PlateID>
1198308-R-SPFL-13

>  <Well>
H02

>  <MW (desalted)>
159.188

>  <ClogP>
0.008

>  <HBD>
0

>  <TPSA>
30.710

>  <RotBonds>
2

$$$$

            

 11 12  0  0  0  0            999 V2000
   -0.4529   -0.9694    0.0000 O   0  0  0  0  0  0  0  0  0  0  0  0
   -0.0404   -0.2549    0.0000 C   0  0  0  0  0  0  0  0  0  0  0  0
   -0.4529    0.4595    0.0000 O   0  0  0  0  0  0  0  0  0  0  0  0
    0.7846   -0.2549    0.0000 C   0  0  0  0  0  0  0  0  0  0  0  0
    1.2695    0.4125    0.0000 N   0  0  0  0  0  0  0  0  0  0  0  0
    2.0542    0.1576    0.0000 C   0  0  0  0  0  0  0  0  0  0  0  0
    2.8388    0.4125    0.0000 C   0  0  0  0  0  0  0  0  0  0  0  0
    3.3237   -0.2549    0.0000 C   0  0  0  0  0  0  0  0  0  0  0  0
    2.8388   -0.9224    0.0000 C   0  0  0  0  0  0  0  0  0  0  0  0
    2.0542   -0.6674    0.0000 C   0  0  0  0  0  0  0  0  0  0  0  0
    1.2695   -0.9224    0.0000 S   0  0  0  0  0  0  0  0  0  0  0  0
  1  2  1  0  0  0  0
  2  3  2  0  0  0  0
  2  4  1  0  0  0  0
  4  5  2  0  0  0  0
  5  6  1  0  0  0  0
  6  7  1  0  0  0  0
  7  8  1  0  0  0  0
  8  9  1  0  0  0  0
  9 10  1  0  0  0  0
  6 10  2  0  0  0  0
 10 11  1  0  0  0  0
  4 11  1  0  0  0  0
M  END
>  <Catalog ID>
Z1198279941

>  <PlateID>
1198308-R-SPFL-13

>  <Well>
H03

>  <MW (desalted)>
169.201

>  <ClogP>
1.844

>  <HBD>
1

>  <TPSA>
50.190

>  <RotBonds>
1

$$$$

            

 13 14  0  0  0  0            999 V2000
    2.0367   -0.4741    0.0000 N   0  0  0  0  0  0  0  0  0  0  0  0
    2.0367   -1.2991    0.0000 C   0  0  0  0  0  0  0  0  0  0  0  0
    2.7041   -1.7840    0.0000 N   0  0  0  0  0  0  0  0  0  0  0  0
    2.4492   -2.5687    0.0000 C   0  0  0  0  0  0  0  0  0  0  0  0
    1.6242   -2.5687    0.0000 N   0  0  0  0  0  0  0  0  0  0  0  0
    1.1393   -3.2361    0.0000 C   0  0  0  0  0  0  0  0  0  0  0  0
    0.3188   -3.1499    0.0000 C   0  0  0  0  0  0  0  0  0  0  0  0
   -0.1661   -3.8173    0.0000 C   0  0  0  0  0  0  0  0  0  0  0  0
   -0.9866   -3.7311    0.0000 C   0  0  0  0  0  0  0  0  0  0  0  0
   -1.3222   -2.9774    0.0000 C   0  0  0  0  0  0  0  0  0  0  0  0
   -0.8372   -2.3099    0.0000 C   0  0  0  0  0  0  0  0  0  0  0  0
   -0.0168   -2.3962    0.0000 C   0  0  0  0  0  0  0  0  0  0  0  0
    1.3693   -1.7840    0.0000 N   0  0  0  0  0  0  0  0  0  0  0  0
  1  2  1  0  0  0  0
  2  3  1  0  0  0  0
  3  4  2  0  0  0  0
  4  5  1  0  0  0  0
  5  6  1  0  0  0  0
  6  7  1  0  0  0  0
  7  8  2  0  0  0  0
  8  9  1  0  0  0  0
  9 10  2  0  0  0  0
 10 11  1  0  0  0  0
 11 12  2  0  0  0  0
  7 12  1  0  0  0  0
  5 13  1  0  0  0  0
  2 13  2  0  0  0  0
M  END
>  <Catalog ID>
Z600584624

>  <PlateID>
1198308-R-SPFL-13

>  <Well>
H04

>  <MW (desalted)>
174.203

>  <ClogP>
0.922

>  <HBD>
1

>  <TPSA>
56.730

>  <RotBonds>
2

$$$$

            

 11 11  0  0  0  0            999 V2000
    0.0000    0.0000    0.0000 Cl  0  0  0  0  0  0  0  0  0  0  0  0
    2.3571   -0.0162    0.0000 N   0  0  0  0  0  0  0  0  0  0  0  0
    2.9891   -0.5465    0.0000 C   0  0  0  0  0  0  0  0  0  0  0  0
    3.4016   -1.2610    0.0000 C   0  0  0  0  0  0  0  0  0  0  0  0
    2.5766   -1.2610    0.0000 C   0  0  0  0  0  0  0  0  0  0  0  0
    3.6211   -0.0162    0.0000 C   0  0  0  0  0  0  0  0  0  0  0  0
    3.4779    0.7963    0.0000 C   0  0  0  0  0  0  0  0  0  0  0  0
    4.1098    1.3266    0.0000 C   0  0  0  0  0  0  0  0  0  0  0  0
    4.8851    1.0444    0.0000 C   0  0  0  0  0  0  0  0  0  0  0  0
    5.0283    0.2319    0.0000 C   0  0  0  0  0  0  0  0  0  0  0  0
    4.3964   -0.2984    0.0000 C   0  0  0  0  0  0  0  0  0  0  0  0
  2  3  1  0  0  0  0
  3  4  1  0  0  0  0
  4  5  1  0  0  0  0
  3  5  1  0  0  0  0
  3  6  1  0  0  0  0
  6  7  2  0  0  0  0
  7  8  1  0  0  0  0
  8  9  2  0  0  0  0
  9 10  1  0  0  0  0
 10 11  2  0  0  0  0
  6 11  1  0  0  0  0
M  END
>  <Catalog ID>
Z1262398449

>  <PlateID>
1198308-R-SPFL-13

>  <Well>
H05

>  <MW (desalted)>
133.190

>  <ClogP>
1.438

>  <HBD>
1

>  <TPSA>
26.020

>  <RotBonds>
1

$$$$

            

 14 15  0  0  0  0            999 V2000
    0.7145   -1.2375    0.0000 C   0  0  0  0  0  0  0  0  0  0  0  0
    1.4289   -1.6500    0.0000 O   0  0  0  0  0  0  0  0  0  0  0  0
    1.4289   -2.4750    0.0000 C   0  0  0  0  0  0  0  0  0  0  0  0
    2.1434   -2.8875    0.0000 C   0  0  0  0  0  0  0  0  0  0  0  0
    2.1434   -3.7125    0.0000 C   0  0  0  0  0  0  0  0  0  0  0  0
    1.4289   -4.1250    0.0000 C   0  0  0  0  0  0  0  0  0  0  0  0
    0.7145   -3.7125    0.0000 C   0  0  0  0  0  0  0  0  0  0  0  0
    0.7145   -2.8875    0.0000 C   0  0  0  0  0  0  0  0  0  0  0  0
    0.7145   -0.4125    0.0000 C   0  0  0  0  0  0  0  0  0  0  0  0
    0.0000    0.0000    0.0000 C   0  0  0  0  0  0  0  0  0  0  0  0
    0.0000    0.8250    0.0000 C   0  0  0  0  0  0  0  0  0  0  0  0
    0.7145    1.2375    0.0000 C   0  0  0  0  0  0  0  0  0  0  0  0
    1.4289    0.8250    0.0000 N   0  0  0  0  0  0  0  0  0  0  0  0
    1.4289    0.0000    0.0000 C   0  0  0  0  0  0  0  0  0  0  0  0
  1  2  1  0  0  0  0
  2  3  1  0  0  0  0
  3  4  2  0  0  0  0
  4  5  1  0  0  0  0
  5  6  2  0  0  0  0
  6  7  1  0  0  0  0
  7  8  2  0  0  0  0
  3  8  1  0  0  0  0
  1  9  1  0  0  0  0
  9 10  1  0  0  0  0
 10 11  1  0  0  0  0
 11 12  1  0  0  0  0
 12 13  1  0  0  0  0
 13 14  1  0  0  0  0
  9 14  1  0  0  0  0
M  END
>  <Catalog ID>
Z317037454

>  <PlateID>
1198308-R-SPFL-13

>  <Well>
H06

>  <MW (desalted)>
191.269

>  <ClogP>
2.649

>  <HBD>
1

>  <TPSA>
21.260

>  <RotBonds>
3

$$$$

            

 13 14  0  0  0  0            999 V2000
    3.6020    1.1270    0.0000 O   0  0  0  0  0  0  0  0  0  0  0  0
    3.1895    0.4125    0.0000 C   0  0  0  0  0  0  0  0  0  0  0  0
    3.6020   -0.3020    0.0000 O   0  0  0  0  0  0  0  0  0  0  0  0
    2.3645    0.4125    0.0000 C   0  0  0  0  0  0  0  0  0  0  0  0
    1.9520   -0.3020    0.0000 C   0  0  0  0  0  0  0  0  0  0  0  0
    1.1270   -0.3020    0.0000 C   0  0  0  0  0  0  0  0  0  0  0  0
    0.7145    0.4125    0.0000 C   0  0  0  0  0  0  0  0  0  0  0  0
    0.0000    0.0000    0.0000 C   0  0  0  0  0  0  0  0  0  0  0  0
    0.0000    0.8250    0.0000 C   0  0  0  0  0  0  0  0  0  0  0  0
   -0.7477    1.1737    0.0000 F   0  0  0  0  0  0  0  0  0  0  0  0
    0.0719    1.6469    0.0000 F   0  0  0  0  0  0  0  0  0  0  0  0
    1.1270    1.1270    0.0000 C   0  0  0  0  0  0  0  0  0  0  0  0
    1.9520    1.1270    0.0000 C   0  0  0  0  0  0  0  0  0  0  0  0
  1  2  1  0  0  0  0
  2  3  2  0  0  0  0
  2  4  1  0  0  0  0
  4  5  1  0  0  0  0
  5  6  1  0  0  0  0
  6  7  1  0  0  0  0
  7  8  1  0  0  0  0
  8  9  1  0  0  0  0
  7  9  1  0  0  0  0
  9 10  1  0  0  0  0
  9 11  1  0  0  0  0
  7 12  1  0  0  0  0
 12 13  1  0  0  0  0
  4 13  1  0  0  0  0
M  END
>  <Catalog ID>
Z2467454511

>  <PlateID>
1198308-R-SPFL-13

>  <Well>
H07

>  <MW (desalted)>
190.187

>  <ClogP>
1.537

>  <HBD>
1

>  <TPSA>
37.300

>  <RotBonds>
1

$$$$

            

 12 13  0  0  0  0            999 V2000
    0.7145    6.7661    0.0000 Cl  0  0  0  0  0  0  0  0  0  0  0  0
    0.7145    5.9411    0.0000 C   0  0  0  0  0  0  0  0  0  0  0  0
    1.4289    5.5286    0.0000 C   0  0  0  0  0  0  0  0  0  0  0  0
    1.4289    4.7036    0.0000 C   0  0  0  0  0  0  0  0  0  0  0  0
    0.7145    4.2911    0.0000 C   0  0  0  0  0  0  0  0  0  0  0  0
    0.0000    4.7036    0.0000 C   0  0  0  0  0  0  0  0  0  0  0  0
    0.0000    5.5286    0.0000 C   0  0  0  0  0  0  0  0  0  0  0  0
    0.7145    3.4661    0.0000 N   0  0  0  0  0  0  0  0  0  0  0  0
    1.3819    2.9812    0.0000 C   0  0  0  0  0  0  0  0  0  0  0  0
    1.1270    2.1965    0.0000 N   0  0  0  0  0  0  0  0  0  0  0  0
    0.3020    2.1965    0.0000 N   0  0  0  0  0  0  0  0  0  0  0  0
    0.0470    2.9812    0.0000 N   0  0  0  0  0  0  0  0  0  0  0  0
  1  2  1  0  0  0  0
  2  3  2  0  0  0  0
  3  4  1  0  0  0  0
  4  5  2  0  0  0  0
  5  6  1  0  0  0  0
  6  7  2  0  0  0  0
  2  7  1  0  0  0  0
  5  8  1  0  0  0  0
  8  9  1  0  0  0  0
  9 10  2  0  0  0  0
 10 11  1  0  0  0  0
 11 12  2  0  0  0  0
  8 12  1  0  0  0  0
M  END
>  <Catalog ID>
Z57165774

>  <PlateID>
1198308-R-SPFL-13

>  <Well>
H08

>  <MW (desalted)>
180.594

>  <ClogP>
1.881

>  <HBD>
0

>  <TPSA>
43.600

>  <RotBonds>
1

$$$$

            

 12 12  0  0  0  0            999 V2000
   -0.5724    3.0132    0.0000 F   0  0  0  0  0  0  0  0  0  0  0  0
    0.1421    2.6007    0.0000 C   0  0  0  0  0  0  0  0  0  0  0  0
   -0.2704    1.8862    0.0000 F   0  0  0  0  0  0  0  0  0  0  0  0
    0.5546    3.3152    0.0000 F   0  0  0  0  0  0  0  0  0  0  0  0
    0.8566    2.1882    0.0000 C   0  0  0  0  0  0  0  0  0  0  0  0
    0.8566    1.3632    0.0000 N   0  0  0  0  0  0  0  0  0  0  0  0
    1.5999    1.0053    0.0000 C   0  0  0  0  0  0  0  0  0  0  0  0
    1.7834    0.2009    0.0000 C   0  0  0  0  0  0  0  0  0  0  0  0
    1.2691   -0.4441    0.0000 C   0  0  0  0  0  0  0  0  0  0  0  0
    0.4441   -0.4441    0.0000 N   0  0  0  0  0  0  0  0  0  0  0  0
   -0.0703    0.2009    0.0000 C   0  0  0  0  0  0  0  0  0  0  0  0
    0.1133    1.0053    0.0000 C   0  0  0  0  0  0  0  0  0  0  0  0
  1  2  1  0  0  0  0
  2  3  1  0  0  0  0
  2  4  1  0  0  0  0
  2  5  1  0  0  0  0
  5  6  1  0  0  0  0
  6  7  1  0  0  0  0
  7  8  1  0  0  0  0
  8  9  1  0  0  0  0
  9 10  1  0  0  0  0
 10 11  1  0  0  0  0
 11 12  1  0  0  0  0
  6 12  1  0  0  0  0
M  END
>  <Catalog ID>
Z239095958

>  <PlateID>
1198308-R-SPFL-13

>  <Well>
H09

>  <MW (desalted)>
182.187

>  <ClogP>
0.714

>  <HBD>
1

>  <TPSA>
15.270

>  <RotBonds>
2

$$$$

            

 11 11  0  0  0  0            999 V2000
    0.0000    3.3000    0.0000 N   0  0  0  0  0  0  0  0  0  0  0  0
    0.0000    2.4750    0.0000 C   0  0  0  0  0  0  0  0  0  0  0  0
   -0.7145    2.0625    0.0000 O   0  0  0  0  0  0  0  0  0  0  0  0
    0.7145    2.0625    0.0000 C   0  0  0  0  0  0  0  0  0  0  0  0
    0.7145    1.2375    0.0000 C   0  0  0  0  0  0  0  0  0  0  0  0
    1.4289    0.8250    0.0000 C   0  0  0  0  0  0  0  0  0  0  0  0
    1.4289   -0.0000    0.0000 C   0  0  0  0  0  0  0  0  0  0  0  0
    0.7145   -0.4125    0.0000 C   0  0  0  0  0  0  0  0  0  0  0  0
    0.7145   -1.2375    0.0000 F   0  0  0  0  0  0  0  0  0  0  0  0
    0.0000    0.0000    0.0000 C   0  0  0  0  0  0  0  0  0  0  0  0
    0.0000    0.8250    0.0000 C   0  0  0  0  0  0  0  0  0  0  0  0
  1  2  1  0  0  0  0
  2  3  2  0  0  0  0
  2  4  1  0  0  0  0
  4  5  1  0  0  0  0
  5  6  2  0  0  0  0
  6  7  1  0  0  0  0
  7  8  2  0  0  0  0
  8  9  1  0  0  0  0
  8 10  1  0  0  0  0
 10 11  2  0  0  0  0
  5 11  1  0  0  0  0
M  END
>  <Catalog ID>
Z33546755

>  <PlateID>
1198308-R-SPFL-13

>  <Well>
H10

>  <MW (desalted)>
153.154

>  <ClogP>
0.597

>  <HBD>
1

>  <TPSA>
43.090

>  <RotBonds>
2

$$$$

            

 14 16  0  0  0  0            999 V2000
    0.6490   -2.2790    0.0000 F   0  0  0  0  0  0  0  0  0  0  0  0
    1.0390   -1.5520    0.0000 C   0  0  0  0  0  0  0  0  0  0  0  0
    0.6043   -0.8508    0.0000 C   0  0  0  0  0  0  0  0  0  0  0  0
    0.9943   -0.1238    0.0000 C   0  0  0  0  0  0  0  0  0  0  0  0
    1.8189   -0.0980    0.0000 C   0  0  0  0  0  0  0  0  0  0  0  0
    2.2535   -0.7992    0.0000 C   0  0  0  0  0  0  0  0  0  0  0  0
    3.0781   -0.7735    0.0000 N   0  0  0  0  0  0  0  0  0  0  0  0
    3.6108   -0.1434    0.0000 C   0  0  0  0  0  0  0  0  0  0  0  0
    4.3745   -0.4553    0.0000 C   0  0  0  0  0  0  0  0  0  0  0  0
    4.3140   -1.2781    0.0000 C   0  0  0  0  0  0  0  0  0  0  0  0
    3.5127   -1.4747    0.0000 C   0  0  0  0  0  0  0  0  0  0  0  0
    3.1228   -2.2017    0.0000 N   0  0  0  0  0  0  0  0  0  0  0  0
    2.2982   -2.2275    0.0000 C   0  0  0  0  0  0  0  0  0  0  0  0
    1.8636   -1.5262    0.0000 C   0  0  0  0  0  0  0  0  0  0  0  0
  1  2  1  0  0  0  0
  2  3  2  0  0  0  0
  3  4  1  0  0  0  0
  4  5  2  0  0  0  0
  5  6  1  0  0  0  0
  6  7  1  0  0  0  0
  7  8  1  0  0  0  0
  8  9  1  0  0  0  0
  9 10  1  0  0  0  0
 10 11  1  0  0  0  0
  7 11  1  0  0  0  0
 11 12  2  0  0  0  0
 12 13  1  0  0  0  0
 13 14  1  0  0  0  0
  2 14  1  0  0  0  0
  6 14  2  0  0  0  0
M  END
>  <Catalog ID>
Z1331365330

>  <PlateID>
1198308-R-SPFL-13

>  <Well>
H11

>  <MW (desalted)>
190.217

>  <ClogP>
2.430

>  <HBD>
0

>  <TPSA>
15.600

>  <RotBonds>
0

$$$$

            

 11 12  0  0  0  0            999 V2000
    1.4289   -1.6500    0.0000 C   0  0  0  0  0  0  0  0  0  0  0  0
    0.7145   -1.2375    0.0000 N   0  0  0  0  0  0  0  0  0  0  0  0
    0.7145   -0.4125    0.0000 C   0  0  0  0  0  0  0  0  0  0  0  0
    0.0000    0.0000    0.0000 C   0  0  0  0  0  0  0  0  0  0  0  0
    0.0000    0.8250    0.0000 C   0  0  0  0  0  0  0  0  0  0  0  0
    0.7145    1.2375    0.0000 C   0  0  0  0  0  0  0  0  0  0  0  0
    1.4289    0.8250    0.0000 N   0  0  0  0  0  0  0  0  0  0  0  0
    1.4289    0.0000    0.0000 C   0  0  0  0  0  0  0  0  0  0  0  0
    1.4289   -2.4750    0.0000 C   0  0  0  0  0  0  0  0  0  0  0  0
    1.8414   -3.1895    0.0000 C   0  0  0  0  0  0  0  0  0  0  0  0
    1.0164   -3.1895    0.0000 C   0  0  0  0  0  0  0  0  0  0  0  0
  1  2  1  0  0  0  0
  2  3  1  0  0  0  0
  3  4  2  0  0  0  0
  4  5  1  0  0  0  0
  5  6  2  0  0  0  0
  6  7  1  0  0  0  0
  7  8  2  0  0  0  0
  3  8  1  0  0  0  0
  1  9  1  0  0  0  0
  9 10  1  0  0  0  0
 10 11  1  0  0  0  0
  9 11  1  0  0  0  0
M  END
>  <Catalog ID>
Z445153988

>  <PlateID>
1198308-R-SPFL-14

>  <Well>
A02

>  <MW (desalted)>
148.205

>  <ClogP>
2.089

>  <HBD>
1

>  <TPSA>
24.920

>  <RotBonds>
3

$$$$

            

 11 12  0  0  0  0            999 V2000
    2.7845    0.6979    0.0000 F   0  0  0  0  0  0  0  0  0  0  0  0
    2.0701    1.1104    0.0000 C   0  0  0  0  0  0  0  0  0  0  0  0
    1.3556    0.6979    0.0000 C   0  0  0  0  0  0  0  0  0  0  0  0
    0.6411    1.1104    0.0000 C   0  0  0  0  0  0  0  0  0  0  0  0
   -0.1435    0.8555    0.0000 C   0  0  0  0  0  0  0  0  0  0  0  0
   -0.6284    1.5229    0.0000 C   0  0  0  0  0  0  0  0  0  0  0  0
   -0.1435    2.1904    0.0000 N   0  0  0  0  0  0  0  0  0  0  0  0
    0.6411    1.9354    0.0000 C   0  0  0  0  0  0  0  0  0  0  0  0
    1.3556    2.3479    0.0000 C   0  0  0  0  0  0  0  0  0  0  0  0
    2.0701    1.9354    0.0000 C   0  0  0  0  0  0  0  0  0  0  0  0
    2.7845    2.3479    0.0000 F   0  0  0  0  0  0  0  0  0  0  0  0
  1  2  1  0  0  0  0
  2  3  2  0  0  0  0
  3  4  1  0  0  0  0
  4  5  1  0  0  0  0
  5  6  1  0  0  0  0
  6  7  1  0  0  0  0
  7  8  1  0  0  0  0
  4  8  2  0  0  0  0
  8  9  1  0  0  0  0
  9 10  2  0  0  0  0
  2 10  1  0  0  0  0
 10 11  1  0  0  0  0
M  END
>  <Catalog ID>
Z259726280

>  <PlateID>
1198308-R-SPFL-14

>  <Well>
A03

>  <MW (desalted)>
155.145

>  <ClogP>
2.400

>  <HBD>
1

>  <TPSA>
12.030

>  <RotBonds>
0

$$$$

            

 14 15  0  0  0  0            999 V2000
    1.4289   -1.6500    0.0000 C   0  0  0  0  0  0  0  0  0  0  0  0
    1.4289   -2.4750    0.0000 N   0  0  0  0  0  0  0  0  0  0  0  0
    2.0964   -2.9599    0.0000 C   0  0  0  0  0  0  0  0  0  0  0  0
    1.8414   -3.7445    0.0000 N   0  0  0  0  0  0  0  0  0  0  0  0
    1.0164   -3.7445    0.0000 N   0  0  0  0  0  0  0  0  0  0  0  0
    0.7615   -2.9599    0.0000 C   0  0  0  0  0  0  0  0  0  0  0  0
   -0.0231   -2.7050    0.0000 C   0  0  0  0  0  0  0  0  0  0  0  0
   -0.6362   -3.2570    0.0000 C   0  0  0  0  0  0  0  0  0  0  0  0
   -1.4208   -3.0021    0.0000 C   0  0  0  0  0  0  0  0  0  0  0  0
   -2.0339   -3.5541    0.0000 C   0  0  0  0  0  0  0  0  0  0  0  0
   -2.8186   -3.2992    0.0000 C   0  0  0  0  0  0  0  0  0  0  0  0
   -2.9901   -2.4922    0.0000 C   0  0  0  0  0  0  0  0  0  0  0  0
   -2.3770   -1.9402    0.0000 C   0  0  0  0  0  0  0  0  0  0  0  0
   -1.5924   -2.1951    0.0000 C   0  0  0  0  0  0  0  0  0  0  0  0
  1  2  1  0  0  0  0
  2  3  1  0  0  0  0
  3  4  2  0  0  0  0
  4  5  1  0  0  0  0
  5  6  2  0  0  0  0
  2  6  1  0  0  0  0
  6  7  1  0  0  0  0
  7  8  1  0  0  0  0
  8  9  1  0  0  0  0
  9 10  2  0  0  0  0
 10 11  1  0  0  0  0
 11 12  2  0  0  0  0
 12 13  1  0  0  0  0
 13 14  2  0  0  0  0
  9 14  1  0  0  0  0
M  END
>  <Catalog ID>
Z1492982899

>  <PlateID>
1198308-R-SPFL-14

>  <Well>
A04

>  <MW (desalted)>
187.241

>  <ClogP>
1.135

>  <HBD>
0

>  <TPSA>
30.710

>  <RotBonds>
3

$$$$

            

 11 11  0  0  0  0            999 V2000
    0.0000    3.3000    0.0000 C   0  0  0  0  0  0  0  0  0  0  0  0
    0.0000    2.4750    0.0000 C   0  0  0  0  0  0  0  0  0  0  0  0
   -0.7145    2.0625    0.0000 O   0  0  0  0  0  0  0  0  0  0  0  0
    0.7145    2.0625    0.0000 N   0  0  0  0  0  0  0  0  0  0  0  0
    0.7145    1.2375    0.0000 C   0  0  0  0  0  0  0  0  0  0  0  0
    1.4289    0.8250    0.0000 C   0  0  0  0  0  0  0  0  0  0  0  0
    1.4289   -0.0000    0.0000 C   0  0  0  0  0  0  0  0  0  0  0  0
    0.7145   -0.4125    0.0000 C   0  0  0  0  0  0  0  0  0  0  0  0
    0.7145   -1.2375    0.0000 Cl  0  0  0  0  0  0  0  0  0  0  0  0
    0.0000    0.0000    0.0000 C   0  0  0  0  0  0  0  0  0  0  0  0
    0.0000    0.8250    0.0000 C   0  0  0  0  0  0  0  0  0  0  0  0
  1  2  1  0  0  0  0
  2  3  2  0  0  0  0
  2  4  1  0  0  0  0
  4  5  1  0  0  0  0
  5  6  2  0  0  0  0
  6  7  1  0  0  0  0
  7  8  2  0  0  0  0
  8  9  1  0  0  0  0
  8 10  1  0  0  0  0
 10 11  2  0  0  0  0
  5 11  1  0  0  0  0
M  END
>  <Catalog ID>
Z28161730

>  <PlateID>
1198308-R-SPFL-14

>  <Well>
A05

>  <MW (desalted)>
169.608

>  <ClogP>
2.132

>  <HBD>
1

>  <TPSA>
29.100

>  <RotBonds>
1

$$$$

            

 14 13  0  0  0  0            999 V2000
    0.0000    0.0000    0.0000 Cl  0  0  0  0  0  0  0  0  0  0  0  0
    2.0036    0.0000    0.0000 Cl  0  0  0  0  0  0  0  0  0  0  0  0
   -0.6912   -1.6500    0.0000 C   0  0  0  0  0  0  0  0  0  0  0  0
   -0.6912   -2.4750    0.0000 N   0  0  0  0  0  0  0  0  0  0  0  0
   -0.0237   -2.9599    0.0000 C   0  0  0  0  0  0  0  0  0  0  0  0
   -0.2787   -3.7445    0.0000 C   0  0  0  0  0  0  0  0  0  0  0  0
   -1.1037   -3.7445    0.0000 C   0  0  0  0  0  0  0  0  0  0  0  0
   -1.3586   -2.9599    0.0000 N   0  0  0  0  0  0  0  0  0  0  0  0
    0.2062   -4.4120    0.0000 C   0  0  0  0  0  0  0  0  0  0  0  0
    1.0267   -4.3257    0.0000 C   0  0  0  0  0  0  0  0  0  0  0  0
    1.5117   -4.9932    0.0000 C   0  0  0  0  0  0  0  0  0  0  0  0
    1.1761   -5.7469    0.0000 C   0  0  0  0  0  0  0  0  0  0  0  0
    0.3556   -5.8331    0.0000 N   0  0  0  0  0  0  0  0  0  0  0  0
   -0.1293   -5.1657    0.0000 C   0  0  0  0  0  0  0  0  0  0  0  0
  3  4  1  0  0  0  0
  4  5  1  0  0  0  0
  5  6  2  0  0  0  0
  6  7  1  0  0  0  0
  7  8  2  0  0  0  0
  4  8  1  0  0  0  0
  6  9  1  0  0  0  0
  9 10  2  0  0  0  0
 10 11  1  0  0  0  0
 11 12  1  0  0  0  0
 12 13  1  0  0  0  0
 13 14  1  0  0  0  0
  9 14  1  0  0  0  0
M  END
>  <Catalog ID>
Z2509867584

>  <PlateID>
1198308-R-SPFL-14

>  <Well>
A06

>  <MW (desalted)>
163.220

>  <ClogP>
0.504

>  <HBD>
1

>  <TPSA>
29.850

>  <RotBonds>
1

$$$$

            

 14 14  0  0  0  0            999 V2000
    1.2822    3.1768    0.0000 C   0  0  0  0  0  0  0  0  0  0  0  0
    1.2822    2.3518    0.0000 C   0  0  0  0  0  0  0  0  0  0  0  0
    1.9967    1.9393    0.0000 C   0  0  0  0  0  0  0  0  0  0  0  0
    0.5678    1.9393    0.0000 C   0  0  0  0  0  0  0  0  0  0  0  0
    0.5678    1.1143    0.0000 N   0  0  0  0  0  0  0  0  0  0  0  0
    1.2352    0.6294    0.0000 C   0  0  0  0  0  0  0  0  0  0  0  0
    2.0198    0.8843    0.0000 N   0  0  0  0  0  0  0  0  0  0  0  0
    0.9803   -0.1553    0.0000 N   0  0  0  0  0  0  0  0  0  0  0  0
    0.1553   -0.1553    0.0000 C   0  0  0  0  0  0  0  0  0  0  0  0
   -0.0997    0.6294    0.0000 C   0  0  0  0  0  0  0  0  0  0  0  0
   -0.8843    0.8843    0.0000 C   0  0  0  0  0  0  0  0  0  0  0  0
   -1.6689    1.1392    0.0000 F   0  0  0  0  0  0  0  0  0  0  0  0
   -0.6294    1.6689    0.0000 F   0  0  0  0  0  0  0  0  0  0  0  0
   -1.1392    0.0997    0.0000 F   0  0  0  0  0  0  0  0  0  0  0  0
  1  2  1  0  0  0  0
  2  3  1  0  0  0  0
  2  4  1  0  0  0  0
  4  5  1  0  0  0  0
  5  6  1  0  0  0  0
  6  7  1  0  0  0  0
  6  8  2  0  0  0  0
  8  9  1  0  0  0  0
  9 10  2  0  0  0  0
  5 10  1  0  0  0  0
 10 11  1  0  0  0  0
 11 12  1  0  0  0  0
 11 13  1  0  0  0  0
 11 14  1  0  0  0  0
M  END
>  <Catalog ID>
Z1823903864

>  <PlateID>
1198308-R-SPFL-14

>  <Well>
A07

>  <MW (desalted)>
207.196

>  <ClogP>
2.175

>  <HBD>
1

>  <TPSA>
43.840

>  <RotBonds>
3

$$$$

            

 11 12  0  0  0  0            999 V2000
    2.5330    0.1698    0.0000 C   0  0  0  0  0  0  0  0  0  0  0  0
    2.5330   -0.6552    0.0000 C   0  0  0  0  0  0  0  0  0  0  0  0
    3.2004   -1.1401    0.0000 C   0  0  0  0  0  0  0  0  0  0  0  0
    2.9455   -1.9248    0.0000 C   0  0  0  0  0  0  0  0  0  0  0  0
    2.1205   -1.9248    0.0000 C   0  0  0  0  0  0  0  0  0  0  0  0
    1.8655   -1.1401    0.0000 N   0  0  0  0  0  0  0  0  0  0  0  0
    3.2475    0.5823    0.0000 N   0  0  0  0  0  0  0  0  0  0  0  0
    3.3337    1.4028    0.0000 C   0  0  0  0  0  0  0  0  0  0  0  0
    4.1407    1.5743    0.0000 C   0  0  0  0  0  0  0  0  0  0  0  0
    4.5532    0.8598    0.0000 C   0  0  0  0  0  0  0  0  0  0  0  0
    4.0011    0.2467    0.0000 N   0  0  0  0  0  0  0  0  0  0  0  0
  1  2  1  0  0  0  0
  2  3  1  0  0  0  0
  3  4  1  0  0  0  0
  4  5  1  0  0  0  0
  5  6  1  0  0  0  0
  2  6  1  0  0  0  0
  1  7  1  0  0  0  0
  7  8  1  0  0  0  0
  8  9  2  0  0  0  0
  9 10  1  0  0  0  0
 10 11  2  0  0  0  0
  7 11  1  0  0  0  0
M  END
>  <Catalog ID>
Z839512906

>  <PlateID>
1198308-R-SPFL-14

>  <Well>
A08

>  <MW (desalted)>
151.209

>  <ClogP>
0.448

>  <HBD>
1

>  <TPSA>
29.850

>  <RotBonds>
2

$$$$

            

 14 15  0  0  0  0            999 V2000
    2.0367   -0.4741    0.0000 N   0  0  0  0  0  0  0  0  0  0  0  0
    2.0367   -1.2991    0.0000 C   0  0  0  0  0  0  0  0  0  0  0  0
    2.7041   -1.7840    0.0000 N   0  0  0  0  0  0  0  0  0  0  0  0
    2.4492   -2.5687    0.0000 N   0  0  0  0  0  0  0  0  0  0  0  0
    1.6242   -2.5687    0.0000 C   0  0  0  0  0  0  0  0  0  0  0  0
    1.1393   -3.2361    0.0000 C   0  0  0  0  0  0  0  0  0  0  0  0
    0.3188   -3.1499    0.0000 C   0  0  0  0  0  0  0  0  0  0  0  0
   -0.1661   -3.8173    0.0000 C   0  0  0  0  0  0  0  0  0  0  0  0
   -0.9866   -3.7311    0.0000 C   0  0  0  0  0  0  0  0  0  0  0  0
   -1.3222   -2.9774    0.0000 C   0  0  0  0  0  0  0  0  0  0  0  0
   -0.8372   -2.3099    0.0000 C   0  0  0  0  0  0  0  0  0  0  0  0
   -0.0168   -2.3962    0.0000 C   0  0  0  0  0  0  0  0  0  0  0  0
    0.4682   -1.7287    0.0000 Cl  0  0  0  0  0  0  0  0  0  0  0  0
    1.3693   -1.7840    0.0000 O   0  0  0  0  0  0  0  0  0  0  0  0
  1  2  1  0  0  0  0
  2  3  2  0  0  0  0
  3  4  1  0  0  0  0
  4  5  2  0  0  0  0
  5  6  1  0  0  0  0
  6  7  1  0  0  0  0
  7  8  2  0  0  0  0
  8  9  1  0  0  0  0
  9 10  2  0  0  0  0
 10 11  1  0  0  0  0
 11 12  2  0  0  0  0
  7 12  1  0  0  0  0
 12 13  1  0  0  0  0
  5 14  1  0  0  0  0
  2 14  1  0  0  0  0
M  END
>  <Catalog ID>
Z285233960

>  <PlateID>
1198308-R-SPFL-14

>  <Well>
A09

>  <MW (desalted)>
209.632

>  <ClogP>
1.267

>  <HBD>
1

>  <TPSA>
64.940

>  <RotBonds>
2

$$$$

            

 10 10  0  0  0  0            999 V2000
   -0.1467    3.1768    0.0000 O   0  0  0  0  0  0  0  0  0  0  0  0
   -0.1467    2.3518    0.0000 C   0  0  0  0  0  0  0  0  0  0  0  0
   -0.8612    1.9393    0.0000 O   0  0  0  0  0  0  0  0  0  0  0  0
    0.5678    1.9393    0.0000 C   0  0  0  0  0  0  0  0  0  0  0  0
    0.5678    1.1143    0.0000 N   0  0  0  0  0  0  0  0  0  0  0  0
    1.2352    0.6294    0.0000 C   0  0  0  0  0  0  0  0  0  0  0  0
    0.9803   -0.1553    0.0000 C   0  0  0  0  0  0  0  0  0  0  0  0
    1.4652   -0.8227    0.0000 Cl  0  0  0  0  0  0  0  0  0  0  0  0
    0.1553   -0.1553    0.0000 C   0  0  0  0  0  0  0  0  0  0  0  0
   -0.0997    0.6294    0.0000 N   0  0  0  0  0  0  0  0  0  0  0  0
  1  2  1  0  0  0  0
  2  3  2  0  0  0  0
  2  4  1  0  0  0  0
  4  5  1  0  0  0  0
  5  6  1  0  0  0  0
  6  7  2  0  0  0  0
  7  8  1  0  0  0  0
  7  9  1  0  0  0  0
  9 10  2  0  0  0  0
  5 10  1  0  0  0  0
M  END
>  <Catalog ID>
Z729827274

>  <PlateID>
1198308-R-SPFL-14

>  <Well>
A10

>  <MW (desalted)>
160.558

>  <ClogP>
0.667

>  <HBD>
1

>  <TPSA>
55.120

>  <RotBonds>
2

$$$$

            

  0  0  0     0  0            999 V3000
M  V30 BEGIN CTAB
M  V30 COUNTS 13 13 0 0 0
M  V30 BEGIN ATOM
M  V30 1 Br 0 0 0 0
M  V30 2 N 4.4 -2.231 0 0
M  V30 3 C 5.9063 -1.9108 0 0
M  V30 4 N 6.9368 -3.0553 0 0
M  V30 5 N 6.3822 -0.4462 0 0
M  V30 6 C 5.477 0.7997 0 0
M  V30 7 C 6.3822 2.0456 0 0
M  V30 8 C 7.8469 1.5697 0 0 CFG=2
M  V30 9 C 9.1805 2.3397 0 0
M  V30 10 C 10.5142 1.5697 0 0
M  V30 11 C 10.5142 0.0297 0 0
M  V30 12 C 9.1805 -0.7403 0 0
M  V30 13 C 7.8469 0.0297 0 0 CFG=2
M  V30 END ATOM
M  V30 BEGIN BOND
M  V30 1 1 2 3
M  V30 2 2 3 4
M  V30 3 1 3 5
M  V30 4 1 5 6
M  V30 5 1 6 7
M  V30 6 1 8 7 CFG=3
M  V30 7 1 8 9
M  V30 8 1 9 10
M  V30 9 1 10 11
M  V30 10 1 11 12
M  V30 11 1 13 12
M  V30 12 1 8 13
M  V30 13 1 13 5 CFG=3
M  V30 END BOND
M  V30 BEGIN COLLECTION
M  V30 MDLV30/STERAC1 ATOMS=(2 8 13)
M  V30 END COLLECTION
M  V30 END CTAB
M  END
>  <Catalog ID>
Z2412125623

>  <PlateID>
1198308-R-SPFL-14

>  <Well>
A11

>  <MW (desalted)>
167.251

>  <ClogP>
0.908

>  <HBD>
2

>  <TPSA>
53.110

>  <RotBonds>
0

$$$$

            

 12 12  0  0  0  0            999 V2000
    0.0000    3.3000    0.0000 C   0  0  0  0  0  0  0  0  0  0  0  0
    0.0000    2.4750    0.0000 C   0  0  0  0  0  0  0  0  0  0  0  0
   -0.7145    2.0625    0.0000 C   0  0  0  0  0  0  0  0  0  0  0  0
    0.7145    2.0625    0.0000 O   0  0  0  0  0  0  0  0  0  0  0  0
    0.7145    1.2375    0.0000 C   0  0  0  0  0  0  0  0  0  0  0  0
    1.4289    0.8250    0.0000 N   0  0  0  0  0  0  0  0  0  0  0  0
    1.4289   -0.0000    0.0000 C   0  0  0  0  0  0  0  0  0  0  0  0
    0.7145   -0.4125    0.0000 C   0  0  0  0  0  0  0  0  0  0  0  0
    0.7145   -1.2375    0.0000 Cl  0  0  0  0  0  0  0  0  0  0  0  0
    0.0000    0.0000    0.0000 C   0  0  0  0  0  0  0  0  0  0  0  0
    0.0000    0.8250    0.0000 C   0  0  0  0  0  0  0  0  0  0  0  0
   -0.7145    1.2375    0.0000 N   0  0  0  0  0  0  0  0  0  0  0  0
  1  2  1  0  0  0  0
  2  3  1  0  0  0  0
  2  4  1  0  0  0  0
  4  5  1  0  0  0  0
  5  6  2  0  0  0  0
  6  7  1  0  0  0  0
  7  8  2  0  0  0  0
  8  9  1  0  0  0  0
  8 10  1  0  0  0  0
 10 11  2  0  0  0  0
  5 11  1  0  0  0  0
 11 12  1  0  0  0  0
M  END
>  <Catalog ID>
Z1470150308

>  <PlateID>
1198308-R-SPFL-14

>  <Well>
B02

>  <MW (desalted)>
186.639

>  <ClogP>
2.784

>  <HBD>
1

>  <TPSA>
48.140

>  <RotBonds>
2

$$$$

            

 12 13  0  0  0  0            999 V2000
    0.7145   -0.4125    0.0000 N   0  0  0  0  0  0  0  0  0  0  0  0
    0.7145   -1.2375    0.0000 C   0  0  0  0  0  0  0  0  0  0  0  0
    1.3819   -1.7224    0.0000 C   0  0  0  0  0  0  0  0  0  0  0  0
    1.1270   -2.5070    0.0000 C   0  0  0  0  0  0  0  0  0  0  0  0
    0.3020   -2.5070    0.0000 N   0  0  0  0  0  0  0  0  0  0  0  0
    0.0470   -1.7224    0.0000 N   0  0  0  0  0  0  0  0  0  0  0  0
   -0.1830   -3.1745    0.0000 C   0  0  0  0  0  0  0  0  0  0  0  0
    0.1526   -3.9282    0.0000 C   0  0  0  0  0  0  0  0  0  0  0  0
   -0.3323   -4.5956    0.0000 C   0  0  0  0  0  0  0  0  0  0  0  0
   -1.1528   -4.5094    0.0000 C   0  0  0  0  0  0  0  0  0  0  0  0
   -1.4884   -3.7557    0.0000 C   0  0  0  0  0  0  0  0  0  0  0  0
   -1.0034   -3.0882    0.0000 C   0  0  0  0  0  0  0  0  0  0  0  0
  1  2  1  0  0  0  0
  2  3  1  0  0  0  0
  3  4  2  0  0  0  0
  4  5  1  0  0  0  0
  5  6  1  0  0  0  0
  2  6  2  0  0  0  0
  5  7  1  0  0  0  0
  7  8  1  0  0  0  0
  8  9  1  0  0  0  0
  9 10  1  0  0  0  0
 10 11  1  0  0  0  0
 11 12  1  0  0  0  0
  7 12  1  0  0  0  0
M  END
>  <Catalog ID>
Z451325032

>  <PlateID>
1198308-R-SPFL-14

>  <Well>
B03

>  <MW (desalted)>
165.236

>  <ClogP>
1.503

>  <HBD>
1

>  <TPSA>
43.840

>  <RotBonds>
1

$$$$

            

 12 11  0  0  0  0            999 V2000
    0.0000    0.0000    0.0000 Cl  0  0  0  0  0  0  0  0  0  0  0  0
    3.9113    1.1250    0.0000 N   0  0  0  0  0  0  0  0  0  0  0  0
    3.1968    0.7125    0.0000 C   0  0  0  0  0  0  0  0  0  0  0  0
    2.4823    1.1250    0.0000 C   0  0  0  0  0  0  0  0  0  0  0  0
    2.4823    1.9500    0.0000 F   0  0  0  0  0  0  0  0  0  0  0  0
    1.7679    0.7125    0.0000 F   0  0  0  0  0  0  0  0  0  0  0  0
    3.1968   -0.1125    0.0000 C   0  0  0  0  0  0  0  0  0  0  0  0
    3.9113   -0.5250    0.0000 C   0  0  0  0  0  0  0  0  0  0  0  0
    3.9113   -1.3500    0.0000 C   0  0  0  0  0  0  0  0  0  0  0  0
    3.1968   -1.7625    0.0000 C   0  0  0  0  0  0  0  0  0  0  0  0
    2.4823   -1.3500    0.0000 C   0  0  0  0  0  0  0  0  0  0  0  0
    2.4823   -0.5250    0.0000 C   0  0  0  0  0  0  0  0  0  0  0  0
  2  3  1  0  0  0  0
  3  4  1  0  0  0  0
  4  5  1  0  0  0  0
  4  6  1  0  0  0  0
  3  7  1  0  0  0  0
  7  8  2  0  0  0  0
  8  9  1  0  0  0  0
  9 10  2  0  0  0  0
 10 11  1  0  0  0  0
 11 12  2  0  0  0  0
  7 12  1  0  0  0  0
M  END
>  <Catalog ID>
Z2211231766

>  <PlateID>
1198308-R-SPFL-14

>  <Well>
B04

>  <MW (desalted)>
157.161

>  <ClogP>
1.449

>  <HBD>
1

>  <TPSA>
26.020

>  <RotBonds>
2

$$$$

            

 11 12  0  0  0  0            999 V2000
    1.1270   -2.5070    0.0000 C   0  0  0  0  0  0  0  0  0  0  0  0
    0.3020   -2.5070    0.0000 C   0  0  0  0  0  0  0  0  0  0  0  0
    0.0470   -1.7224    0.0000 N   0  0  0  0  0  0  0  0  0  0  0  0
    0.7145   -1.2375    0.0000 N   0  0  0  0  0  0  0  0  0  0  0  0
    1.3819   -1.7224    0.0000 C   0  0  0  0  0  0  0  0  0  0  0  0
    0.7145   -0.4125    0.0000 C   0  0  0  0  0  0  0  0  0  0  0  0
    0.0000    0.0000    0.0000 C   0  0  0  0  0  0  0  0  0  0  0  0
    0.0000    0.8250    0.0000 N   0  0  0  0  0  0  0  0  0  0  0  0
    0.7145    1.2375    0.0000 C   0  0  0  0  0  0  0  0  0  0  0  0
    1.4289    0.8250    0.0000 N   0  0  0  0  0  0  0  0  0  0  0  0
    1.4289   -0.0000    0.0000 C   0  0  0  0  0  0  0  0  0  0  0  0
  1  2  1  0  0  0  0
  2  3  2  0  0  0  0
  3  4  1  0  0  0  0
  4  5  1  0  0  0  0
  1  5  2  0  0  0  0
  4  6  1  0  0  0  0
  6  7  2  0  0  0  0
  7  8  1  0  0  0  0
  8  9  2  0  0  0  0
  9 10  1  0  0  0  0
 10 11  2  0  0  0  0
  6 11  1  0  0  0  0
M  END
>  <Catalog ID>
Z1192340733

>  <PlateID>
1198308-R-SPFL-14

>  <Well>
B05

>  <MW (desalted)>
146.149

>  <ClogP>
0.171

>  <HBD>
0

>  <TPSA>
43.600

>  <RotBonds>
1

$$$$

            

 10 10  0  0  0  0            999 V2000
    1.2822    2.3518    0.0000 C   0  0  0  0  0  0  0  0  0  0  0  0
    0.5678    1.9393    0.0000 O   0  0  0  0  0  0  0  0  0  0  0  0
    0.5678    1.1143    0.0000 C   0  0  0  0  0  0  0  0  0  0  0  0
    1.2352    0.6294    0.0000 C   0  0  0  0  0  0  0  0  0  0  0  0
    0.9803   -0.1553    0.0000 S   0  0  0  0  0  0  0  0  0  0  0  0
    0.1553   -0.1553    0.0000 C   0  0  0  0  0  0  0  0  0  0  0  0
   -0.0997    0.6294    0.0000 C   0  0  0  0  0  0  0  0  0  0  0  0
   -0.3297   -0.8227    0.0000 C   0  0  0  0  0  0  0  0  0  0  0  0
    0.0059   -1.5764    0.0000 O   0  0  0  0  0  0  0  0  0  0  0  0
   -1.1501   -0.7365    0.0000 O   0  0  0  0  0  0  0  0  0  0  0  0
  1  2  1  0  0  0  0
  2  3  1  0  0  0  0
  3  4  2  0  0  0  0
  4  5  1  0  0  0  0
  5  6  1  0  0  0  0
  6  7  2  0  0  0  0
  3  7  1  0  0  0  0
  6  8  1  0  0  0  0
  8  9  2  0  0  0  0
  8 10  1  0  0  0  0
M  END
>  <Catalog ID>
Z335442452

>  <PlateID>
1198308-R-SPFL-14

>  <Well>
B06

>  <MW (desalted)>
158.175

>  <ClogP>
1.753

>  <HBD>
1

>  <TPSA>
46.530

>  <RotBonds>
2

$$$$

            

 13 14  0  0  0  0            999 V2000
    0.4243   -1.7779    0.0000 C   0  0  0  0  0  0  0  0  0  0  0  0
    1.1387   -1.3654    0.0000 C   0  0  0  0  0  0  0  0  0  0  0  0
    1.4743   -2.1191    0.0000 C   0  0  0  0  0  0  0  0  0  0  0  0
    0.6538   -0.6979    0.0000 C   0  0  0  0  0  0  0  0  0  0  0  0
    1.1387   -0.0305    0.0000 O   0  0  0  0  0  0  0  0  0  0  0  0
    1.9233   -0.2854    0.0000 C   0  0  0  0  0  0  0  0  0  0  0  0
    2.6378    0.1271    0.0000 C   0  0  0  0  0  0  0  0  0  0  0  0
    3.3523   -0.2854    0.0000 C   0  0  0  0  0  0  0  0  0  0  0  0
    3.3523   -1.1104    0.0000 C   0  0  0  0  0  0  0  0  0  0  0  0
    4.0668   -1.5229    0.0000 C   0  0  0  0  0  0  0  0  0  0  0  0
    4.7812   -1.1104    0.0000 O   0  0  0  0  0  0  0  0  0  0  0  0
    2.6378   -1.5229    0.0000 C   0  0  0  0  0  0  0  0  0  0  0  0
    1.9233   -1.1104    0.0000 C   0  0  0  0  0  0  0  0  0  0  0  0
  1  2  1  0  0  0  0
  2  3  1  0  0  0  0
  2  4  1  0  0  0  0
  4  5  1  0  0  0  0
  5  6  1  0  0  0  0
  6  7  2  0  0  0  0
  7  8  1  0  0  0  0
  8  9  2  0  0  0  0
  9 10  1  0  0  0  0
 10 11  1  0  0  0  0
  9 12  1  0  0  0  0
 12 13  2  0  0  0  0
  6 13  1  0  0  0  0
  2 13  1  0  0  0  0
M  END
>  <Catalog ID>
Z1861999600

>  <PlateID>
1198308-R-SPFL-14

>  <Well>
B07

>  <MW (desalted)>
178.228

>  <ClogP>
2.196

>  <HBD>
1

>  <TPSA>
29.460

>  <RotBonds>
1

$$$$

            

 14 15  0  0  0  0            999 V2000
    2.7512   -0.0616    0.0000 O   0  0  0  0  0  0  0  0  0  0  0  0
    2.0367   -0.4741    0.0000 C   0  0  0  0  0  0  0  0  0  0  0  0
    2.0367   -1.2991    0.0000 C   0  0  0  0  0  0  0  0  0  0  0  0
    2.7041   -1.7840    0.0000 C   0  0  0  0  0  0  0  0  0  0  0  0
    2.4492   -2.5687    0.0000 C   0  0  0  0  0  0  0  0  0  0  0  0
    1.6242   -2.5687    0.0000 N   0  0  0  0  0  0  0  0  0  0  0  0
    1.1393   -3.2361    0.0000 C   0  0  0  0  0  0  0  0  0  0  0  0
    0.3188   -3.1499    0.0000 C   0  0  0  0  0  0  0  0  0  0  0  0
   -0.1661   -3.8173    0.0000 C   0  0  0  0  0  0  0  0  0  0  0  0
   -0.9866   -3.7311    0.0000 C   0  0  0  0  0  0  0  0  0  0  0  0
   -1.3222   -2.9774    0.0000 C   0  0  0  0  0  0  0  0  0  0  0  0
   -0.8372   -2.3099    0.0000 C   0  0  0  0  0  0  0  0  0  0  0  0
   -0.0168   -2.3962    0.0000 C   0  0  0  0  0  0  0  0  0  0  0  0
    1.3693   -1.7840    0.0000 C   0  0  0  0  0  0  0  0  0  0  0  0
  1  2  1  0  0  0  0
  2  3  1  0  0  0  0
  3  4  1  0  0  0  0
  4  5  1  0  0  0  0
  5  6  1  0  0  0  0
  6  7  1  0  0  0  0
  7  8  1  0  0  0  0
  8  9  2  0  0  0  0
  9 10  1  0  0  0  0
 10 11  2  0  0  0  0
 11 12  1  0  0  0  0
 12 13  2  0  0  0  0
  8 13  1  0  0  0  0
  6 14  1  0  0  0  0
  3 14  1  0  0  0  0
M  END
>  <Catalog ID>
Z858037946

>  <PlateID>
1198308-R-SPFL-14

>  <Well>
B08

>  <MW (desalted)>
191.269

>  <ClogP>
1.142

>  <HBD>
1

>  <TPSA>
23.470

>  <RotBonds>
3

$$$$

            

 15 16  0  0  0  0            999 V2000
    1.4289   -1.6500    0.0000 O   0  0  0  0  0  0  0  0  0  0  0  0
    1.4289   -2.4750    0.0000 C   0  0  0  0  0  0  0  0  0  0  0  0
    2.0964   -2.9599    0.0000 C   0  0  0  0  0  0  0  0  0  0  0  0
    1.8414   -3.7445    0.0000 N   0  0  0  0  0  0  0  0  0  0  0  0
    1.0164   -3.7445    0.0000 C   0  0  0  0  0  0  0  0  0  0  0  0
    0.5315   -4.4120    0.0000 O   0  0  0  0  0  0  0  0  0  0  0  0
    0.7615   -2.9599    0.0000 N   0  0  0  0  0  0  0  0  0  0  0  0
   -0.0231   -2.7050    0.0000 C   0  0  0  0  0  0  0  0  0  0  0  0
   -0.6362   -3.2570    0.0000 C   0  0  0  0  0  0  0  0  0  0  0  0
   -1.4208   -3.0021    0.0000 C   0  0  0  0  0  0  0  0  0  0  0  0
   -2.0339   -3.5541    0.0000 C   0  0  0  0  0  0  0  0  0  0  0  0
   -2.8186   -3.2992    0.0000 C   0  0  0  0  0  0  0  0  0  0  0  0
   -2.9901   -2.4922    0.0000 C   0  0  0  0  0  0  0  0  0  0  0  0
   -2.3770   -1.9402    0.0000 C   0  0  0  0  0  0  0  0  0  0  0  0
   -1.5924   -2.1951    0.0000 C   0  0  0  0  0  0  0  0  0  0  0  0
  1  2  2  0  0  0  0
  2  3  1  0  0  0  0
  3  4  1  0  0  0  0
  4  5  1  0  0  0  0
  5  6  2  0  0  0  0
  5  7  1  0  0  0  0
  2  7  1  0  0  0  0
  7  8  1  0  0  0  0
  8  9  1  0  0  0  0
  9 10  1  0  0  0  0
 10 11  2  0  0  0  0
 11 12  1  0  0  0  0
 12 13  2  0  0  0  0
 13 14  1  0  0  0  0
 14 15  2  0  0  0  0
 10 15  1  0  0  0  0
M  END
>  <Catalog ID>
Z649990548

>  <PlateID>
1198308-R-SPFL-14

>  <Well>
B09

>  <MW (desalted)>
204.225

>  <ClogP>
1.032

>  <HBD>
1

>  <TPSA>
49.410

>  <RotBonds>
3

$$$$

            

 14 16  0  0  0  0            999 V2000
    0.8838   -3.4849    0.0000 C   0  0  0  0  0  0  0  0  0  0  0  0
    0.0992   -3.2299    0.0000 C   0  0  0  0  0  0  0  0  0  0  0  0
    0.0992   -2.4049    0.0000 C   0  0  0  0  0  0  0  0  0  0  0  0
    0.8838   -2.1500    0.0000 C   0  0  0  0  0  0  0  0  0  0  0  0
    1.3687   -2.8174    0.0000 C   0  0  0  0  0  0  0  0  0  0  0  0
    1.1387   -1.3654    0.0000 C   0  0  0  0  0  0  0  0  0  0  0  0
    0.6538   -0.6979    0.0000 N   0  0  0  0  0  0  0  0  0  0  0  0
    1.1387   -0.0305    0.0000 N   0  0  0  0  0  0  0  0  0  0  0  0
    1.9233   -0.2854    0.0000 C   0  0  0  0  0  0  0  0  0  0  0  0
    2.6378    0.1271    0.0000 C   0  0  0  0  0  0  0  0  0  0  0  0
    3.3523   -0.2854    0.0000 N   0  0  0  0  0  0  0  0  0  0  0  0
    3.3523   -1.1104    0.0000 C   0  0  0  0  0  0  0  0  0  0  0  0
    2.6378   -1.5229    0.0000 C   0  0  0  0  0  0  0  0  0  0  0  0
    1.9233   -1.1104    0.0000 N   0  0  0  0  0  0  0  0  0  0  0  0
  1  2  1  0  0  0  0
  2  3  1  0  0  0  0
  3  4  1  0  0  0  0
  4  5  1  0  0  0  0
  1  5  1  0  0  0  0
  4  6  1  0  0  0  0
  6  7  2  0  0  0  0
  7  8  1  0  0  0  0
  8  9  2  0  0  0  0
  9 10  1  0  0  0  0
 10 11  1  0  0  0  0
 11 12  1  0  0  0  0
 12 13  1  0  0  0  0
 13 14  1  0  0  0  0
  6 14  1  0  0  0  0
  9 14  1  0  0  0  0
M  END
>  <Catalog ID>
Z992916772

>  <PlateID>
1198308-R-SPFL-14

>  <Well>
B10

>  <MW (desalted)>
192.261

>  <ClogP>
-0.017

>  <HBD>
1

>  <TPSA>
42.740

>  <RotBonds>
1

$$$$

            

 14 13  0  0  0  0            999 V2000
    0.0000    0.0000    0.0000 Cl  0  0  0  0  0  0  0  0  0  0  0  0
    2.0036    0.0000    0.0000 Cl  0  0  0  0  0  0  0  0  0  0  0  0
   -0.9269   -2.2950    0.0000 C   0  0  0  0  0  0  0  0  0  0  0  0
   -0.4125   -1.6500    0.0000 C   0  0  0  0  0  0  0  0  0  0  0  0
    0.4125   -1.6500    0.0000 N   0  0  0  0  0  0  0  0  0  0  0  0
    0.9269   -2.2950    0.0000 C   0  0  0  0  0  0  0  0  0  0  0  0
    0.7433   -3.0993    0.0000 C   0  0  0  0  0  0  0  0  0  0  0  0
   -0.0000   -3.4573    0.0000 C   0  0  0  0  0  0  0  0  0  0  0  0
   -0.7433   -3.0993    0.0000 C   0  0  0  0  0  0  0  0  0  0  0  0
   -0.0000   -4.2823    0.0000 N   0  0  0  0  0  0  0  0  0  0  0  0
    0.6674   -4.7672    0.0000 C   0  0  0  0  0  0  0  0  0  0  0  0
    0.4125   -5.5518    0.0000 C   0  0  0  0  0  0  0  0  0  0  0  0
   -0.4125   -5.5518    0.0000 N   0  0  0  0  0  0  0  0  0  0  0  0
   -0.6674   -4.7672    0.0000 N   0  0  0  0  0  0  0  0  0  0  0  0
  3  4  1  0  0  0  0
  4  5  1  0  0  0  0
  5  6  1  0  0  0  0
  6  7  1  0  0  0  0
  7  8  1  0  0  0  0
  8  9  1  0  0  0  0
  3  9  1  0  0  0  0
  8 10  1  0  0  0  0
 10 11  1  0  0  0  0
 11 12  2  0  0  0  0
 12 13  1  0  0  0  0
 13 14  2  0  0  0  0
 10 14  1  0  0  0  0
M  END
>  <Catalog ID>
Z2488955547

>  <PlateID>
1198308-R-SPFL-14

>  <Well>
B11

>  <MW (desalted)>
166.224

>  <ClogP>
-0.359

>  <HBD>
1

>  <TPSA>
42.740

>  <RotBonds>
1

$$$$

            

 14 14  0  0  0  0            999 V2000
    0.0000    0.0000    0.0000 Cl  0  0  0  0  0  0  0  0  0  0  0  0
    6.5362    0.7615    0.0000 C   0  0  0  0  0  0  0  0  0  0  0  0
    5.8217    0.3490    0.0000 C   0  0  0  0  0  0  0  0  0  0  0  0
    5.8217   -0.4760    0.0000 C   0  0  0  0  0  0  0  0  0  0  0  0
    5.1072   -0.8885    0.0000 C   0  0  0  0  0  0  0  0  0  0  0  0
    4.3928   -0.4760    0.0000 C   0  0  0  0  0  0  0  0  0  0  0  0
    3.6081   -0.7309    0.0000 O   0  0  0  0  0  0  0  0  0  0  0  0
    3.1232   -0.0635    0.0000 C   0  0  0  0  0  0  0  0  0  0  0  0
    3.6081    0.6040    0.0000 C   0  0  0  0  0  0  0  0  0  0  0  0
    4.3928    0.3490    0.0000 C   0  0  0  0  0  0  0  0  0  0  0  0
    5.1072    0.7615    0.0000 N   0  0  0  0  0  0  0  0  0  0  0  0
    2.2982   -0.0635    0.0000 C   0  0  0  0  0  0  0  0  0  0  0  0
    1.8857   -0.7779    0.0000 O   0  0  0  0  0  0  0  0  0  0  0  0
    1.8857    0.6510    0.0000 O   0  0  0  0  0  0  0  0  0  0  0  0
  2  3  1  0  0  0  0
  3  4  2  0  0  0  0
  4  5  1  0  0  0  0
  5  6  2  0  0  0  0
  6  7  1  0  0  0  0
  7  8  1  0  0  0  0
  8  9  2  0  0  0  0
  9 10  1  0  0  0  0
  6 10  1  0  0  0  0
 10 11  2  0  0  0  0
  3 11  1  0  0  0  0
  8 12  1  0  0  0  0
 12 13  2  0  0  0  0
 12 14  1  0  0  0  0
M  END
>  <Catalog ID>
Z1105173228

>  <PlateID>
1198308-R-SPFL-14

>  <Well>
C02

>  <MW (desalted)>
177.157

>  <ClogP>
1.965

>  <HBD>
1

>  <TPSA>
63.330

>  <RotBonds>
1

$$$$

            

 11 12  0  0  0  0            999 V2000
    2.5645    2.4750    0.0000 N   0  0  0  0  0  0  0  0  0  0  0  0
    3.2789    2.0625    0.0000 C   0  0  0  0  0  0  0  0  0  0  0  0
    3.2789    1.2375    0.0000 C   0  0  0  0  0  0  0  0  0  0  0  0
    3.9934    0.8250    0.0000 C   0  0  0  0  0  0  0  0  0  0  0  0
    3.9934    0.0000    0.0000 C   0  0  0  0  0  0  0  0  0  0  0  0
    3.2789   -0.4125    0.0000 C   0  0  0  0  0  0  0  0  0  0  0  0
    2.5645    0.0000    0.0000 N   0  0  0  0  0  0  0  0  0  0  0  0
    1.7798   -0.2549    0.0000 C   0  0  0  0  0  0  0  0  0  0  0  0
    1.2949    0.4125    0.0000 C   0  0  0  0  0  0  0  0  0  0  0  0
    1.7798    1.0799    0.0000 N   0  0  0  0  0  0  0  0  0  0  0  0
    2.5645    0.8250    0.0000 C   0  0  0  0  0  0  0  0  0  0  0  0
  1  2  1  0  0  0  0
  2  3  1  0  0  0  0
  3  4  1  0  0  0  0
  4  5  1  0  0  0  0
  5  6  1  0  0  0  0
  6  7  1  0  0  0  0
  7  8  1  0  0  0  0
  8  9  2  0  0  0  0
  9 10  1  0  0  0  0
 10 11  2  0  0  0  0
  3 11  1  0  0  0  0
  7 11  1  0  0  0  0
M  END
>  <Catalog ID>
Z1268155031

>  <PlateID>
1198308-R-SPFL-14

>  <Well>
C03

>  <MW (desalted)>
151.209

>  <ClogP>
-0.388

>  <HBD>
1

>  <TPSA>
43.840

>  <RotBonds>
1

$$$$

            

 11 12  0  0  0  0            999 V2000
    0.3020   -2.5070    0.0000 C   0  0  0  0  0  0  0  0  0  0  0  0
    0.0470   -1.7224    0.0000 N   0  0  0  0  0  0  0  0  0  0  0  0
    0.7145   -1.2375    0.0000 C   0  0  0  0  0  0  0  0  0  0  0  0
    1.3819   -1.7224    0.0000 C   0  0  0  0  0  0  0  0  0  0  0  0
    1.1270   -2.5070    0.0000 N   0  0  0  0  0  0  0  0  0  0  0  0
    0.7145   -0.4125    0.0000 C   0  0  0  0  0  0  0  0  0  0  0  0
    0.0000    0.0000    0.0000 C   0  0  0  0  0  0  0  0  0  0  0  0
    0.0000    0.8250    0.0000 C   0  0  0  0  0  0  0  0  0  0  0  0
    0.7145    1.2375    0.0000 C   0  0  0  0  0  0  0  0  0  0  0  0
    1.4289    0.8250    0.0000 C   0  0  0  0  0  0  0  0  0  0  0  0
    1.4289    0.0000    0.0000 C   0  0  0  0  0  0  0  0  0  0  0  0
  1  2  2  0  0  0  0
  2  3  1  0  0  0  0
  3  4  2  0  0  0  0
  4  5  1  0  0  0  0
  1  5  1  0  0  0  0
  3  6  1  0  0  0  0
  6  7  2  0  0  0  0
  7  8  1  0  0  0  0
  8  9  2  0  0  0  0
  9 10  1  0  0  0  0
 10 11  2  0  0  0  0
  6 11  1  0  0  0  0
M  END
>  <Catalog ID>
Z57683817

>  <PlateID>
1198308-R-SPFL-14

>  <Well>
C04

>  <MW (desalted)>
144.173

>  <ClogP>
2.069

>  <HBD>
1

>  <TPSA>
28.680

>  <RotBonds>
1

$$$$

            

 11 12  0  0  0  0            999 V2000
    2.7845    0.6979    0.0000 C   0  0  0  0  0  0  0  0  0  0  0  0
    2.0701    1.1104    0.0000 C   0  0  0  0  0  0  0  0  0  0  0  0
    1.3556    0.6979    0.0000 C   0  0  0  0  0  0  0  0  0  0  0  0
    0.6411    1.1104    0.0000 C   0  0  0  0  0  0  0  0  0  0  0  0
   -0.1435    0.8555    0.0000 C   0  0  0  0  0  0  0  0  0  0  0  0
   -0.6284    1.5229    0.0000 C   0  0  0  0  0  0  0  0  0  0  0  0
   -0.1435    2.1904    0.0000 N   0  0  0  0  0  0  0  0  0  0  0  0
    0.6411    1.9354    0.0000 C   0  0  0  0  0  0  0  0  0  0  0  0
    1.3556    2.3479    0.0000 C   0  0  0  0  0  0  0  0  0  0  0  0
    1.3556    3.1729    0.0000 O   0  0  0  0  0  0  0  0  0  0  0  0
    2.0701    1.9354    0.0000 N   0  0  0  0  0  0  0  0  0  0  0  0
  1  2  1  0  0  0  0
  2  3  2  0  0  0  0
  3  4  1  0  0  0  0
  4  5  1  0  0  0  0
  5  6  2  0  0  0  0
  6  7  1  0  0  0  0
  7  8  1  0  0  0  0
  4  8  2  0  0  0  0
  8  9  1  0  0  0  0
  9 10  2  0  0  0  0
  9 11  1  0  0  0  0
  2 11  1  0  0  0  0
M  END
>  <Catalog ID>
Z1255368377

>  <PlateID>
1198308-R-SPFL-14

>  <Well>
C05

>  <MW (desalted)>
148.162

>  <ClogP>
0.217

>  <HBD>
2

>  <TPSA>
44.890

>  <RotBonds>
0

$$$$

            

 13 13  0  0  0  0            999 V2000
    0.0000    0.0000    0.0000 Cl  0  0  0  0  0  0  0  0  0  0  0  0
    3.5249    1.8683    0.0000 C   0  0  0  0  0  0  0  0  0  0  0  0
    4.0098    1.2008    0.0000 N   0  0  0  0  0  0  0  0  0  0  0  0
    4.8348    1.2008    0.0000 N   0  0  0  0  0  0  0  0  0  0  0  0
    5.0897    0.4162    0.0000 C   0  0  0  0  0  0  0  0  0  0  0  0
    4.4223   -0.0687    0.0000 C   0  0  0  0  0  0  0  0  0  0  0  0
    4.4223   -0.8937    0.0000 C   0  0  0  0  0  0  0  0  0  0  0  0
    5.0057   -1.4771    0.0000 C   0  0  0  0  0  0  0  0  0  0  0  0
    4.4223   -2.0604    0.0000 C   0  0  0  0  0  0  0  0  0  0  0  0
    3.8389   -1.4771    0.0000 C   0  0  0  0  0  0  0  0  0  0  0  0
    3.7549    0.4162    0.0000 C   0  0  0  0  0  0  0  0  0  0  0  0
    2.9702    0.1613    0.0000 C   0  0  0  0  0  0  0  0  0  0  0  0
    2.3571    0.7133    0.0000 N   0  0  0  0  0  0  0  0  0  0  0  0
  2  3  1  0  0  0  0
  3  4  1  0  0  0  0
  4  5  2  0  0  0  0
  5  6  1  0  0  0  0
  6  7  1  0  0  0  0
  7  8  1  0  0  0  0
  8  9  1  0  0  0  0
  9 10  1  0  0  0  0
  7 10  1  0  0  0  0
  6 11  2  0  0  0  0
  3 11  1  0  0  0  0
 11 12  1  0  0  0  0
 12 13  1  0  0  0  0
M  END
>  <Catalog ID>
Z2489158997

>  <PlateID>
1198308-R-SPFL-14

>  <Well>
C06

>  <MW (desalted)>
165.236

>  <ClogP>
0.431

>  <HBD>
1

>  <TPSA>
43.840

>  <RotBonds>
2

$$$$

            

 11 12  0  0  0  0            999 V2000
    0.7145    5.9411    0.0000 C   0  0  0  0  0  0  0  0  0  0  0  0
    1.4289    5.5286    0.0000 C   0  0  0  0  0  0  0  0  0  0  0  0
    1.4289    4.7036    0.0000 C   0  0  0  0  0  0  0  0  0  0  0  0
    0.7145    4.2911    0.0000 C   0  0  0  0  0  0  0  0  0  0  0  0
    0.0000    4.7036    0.0000 N   0  0  0  0  0  0  0  0  0  0  0  0
    0.0000    5.5286    0.0000 C   0  0  0  0  0  0  0  0  0  0  0  0
    0.7145    3.4661    0.0000 C   0  0  0  0  0  0  0  0  0  0  0  0
    1.3819    2.9812    0.0000 C   0  0  0  0  0  0  0  0  0  0  0  0
    1.1270    2.1965    0.0000 C   0  0  0  0  0  0  0  0  0  0  0  0
    0.3020    2.1965    0.0000 C   0  0  0  0  0  0  0  0  0  0  0  0
    0.0470    2.9812    0.0000 O   0  0  0  0  0  0  0  0  0  0  0  0
  1  2  1  0  0  0  0
  2  3  1  0  0  0  0
  3  4  1  0  0  0  0
  4  5  1  0  0  0  0
  5  6  1  0  0  0  0
  1  6  1  0  0  0  0
  4  7  1  0  0  0  0
  7  8  2  0  0  0  0
  8  9  1  0  0  0  0
  9 10  2  0  0  0  0
 10 11  1  0  0  0  0
  7 11  1  0  0  0  0
M  END
>  <Catalog ID>
Z1169540072

>  <PlateID>
1198308-R-SPFL-14

>  <Well>
C07

>  <MW (desalted)>
151.206

>  <ClogP>
1.669

>  <HBD>
1

>  <TPSA>
25.170

>  <RotBonds>
1

$$$$

            

 12 12  0  0  0  0            999 V2000
    1.2822    2.3518    0.0000 C   0  0  0  0  0  0  0  0  0  0  0  0
    0.5678    1.9393    0.0000 C   0  0  0  0  0  0  0  0  0  0  0  0
   -0.1467    2.3518    0.0000 C   0  0  0  0  0  0  0  0  0  0  0  0
    0.5678    1.1143    0.0000 C   0  0  0  0  0  0  0  0  0  0  0  0
    1.2352    0.6294    0.0000 O   0  0  0  0  0  0  0  0  0  0  0  0
    0.9803   -0.1553    0.0000 N   0  0  0  0  0  0  0  0  0  0  0  0
    0.1553   -0.1553    0.0000 C   0  0  0  0  0  0  0  0  0  0  0  0
   -0.3297   -0.8227    0.0000 C   0  0  0  0  0  0  0  0  0  0  0  0
   -0.0997    0.6294    0.0000 C   0  0  0  0  0  0  0  0  0  0  0  0
   -0.8843    0.8843    0.0000 C   0  0  0  0  0  0  0  0  0  0  0  0
   -1.0558    1.6913    0.0000 O   0  0  0  0  0  0  0  0  0  0  0  0
   -1.4974    0.3323    0.0000 O   0  0  0  0  0  0  0  0  0  0  0  0
  1  2  1  0  0  0  0
  2  3  1  0  0  0  0
  2  4  1  0  0  0  0
  4  5  1  0  0  0  0
  5  6  1  0  0  0  0
  6  7  2  0  0  0  0
  7  8  1  0  0  0  0
  7  9  1  0  0  0  0
  4  9  2  0  0  0  0
  9 10  1  0  0  0  0
 10 11  2  0  0  0  0
 10 12  1  0  0  0  0
M  END
>  <Catalog ID>
Z89264866

>  <PlateID>
1198308-R-SPFL-14

>  <Well>
C08

>  <MW (desalted)>
169.178

>  <ClogP>
0.413

>  <HBD>
1

>  <TPSA>
63.330

>  <RotBonds>
2

$$$$

            

 13 14  0  0  0  0            999 V2000
    0.7145   -0.4125    0.0000 C   0  0  0  0  0  0  0  0  0  0  0  0
    0.7145   -1.2375    0.0000 C   0  0  0  0  0  0  0  0  0  0  0  0
    1.3819   -1.7224    0.0000 N   0  0  0  0  0  0  0  0  0  0  0  0
    1.1270   -2.5070    0.0000 C   0  0  0  0  0  0  0  0  0  0  0  0
    1.6119   -3.1745    0.0000 N   0  0  0  0  0  0  0  0  0  0  0  0
    0.3020   -2.5070    0.0000 N   0  0  0  0  0  0  0  0  0  0  0  0
    0.0470   -1.7224    0.0000 N   0  0  0  0  0  0  0  0  0  0  0  0
   -0.7376   -1.4675    0.0000 C   0  0  0  0  0  0  0  0  0  0  0  0
   -1.3507   -2.0195    0.0000 C   0  0  0  0  0  0  0  0  0  0  0  0
   -2.1353   -1.7646    0.0000 C   0  0  0  0  0  0  0  0  0  0  0  0
   -2.3068   -0.9576    0.0000 C   0  0  0  0  0  0  0  0  0  0  0  0
   -1.6937   -0.4056    0.0000 C   0  0  0  0  0  0  0  0  0  0  0  0
   -0.9091   -0.6605    0.0000 C   0  0  0  0  0  0  0  0  0  0  0  0
  1  2  1  0  0  0  0
  2  3  2  0  0  0  0
  3  4  1  0  0  0  0
  4  5  1  0  0  0  0
  4  6  2  0  0  0  0
  6  7  1  0  0  0  0
  2  7  1  0  0  0  0
  7  8  1  0  0  0  0
  8  9  2  0  0  0  0
  9 10  1  0  0  0  0
 10 11  2  0  0  0  0
 11 12  1  0  0  0  0
 12 13  2  0  0  0  0
  8 13  1  0  0  0  0
M  END
>  <Catalog ID>
Z1262627035

>  <PlateID>
1198308-R-SPFL-14

>  <Well>
C09

>  <MW (desalted)>
174.203

>  <ClogP>
1.179

>  <HBD>
1

>  <TPSA>
56.730

>  <RotBonds>
1

$$$$

            

 13 13  0  0  0  0            999 V2000
    0.0000    0.0000    0.0000 Cl  0  0  0  0  0  0  0  0  0  0  0  0
    2.3571   -0.7145    0.0000 N   0  0  0  0  0  0  0  0  0  0  0  0
    2.7696    0.0000    0.0000 C   0  0  0  0  0  0  0  0  0  0  0  0
    2.3571    0.7145    0.0000 N   0  0  0  0  0  0  0  0  0  0  0  0
    3.5946    0.0000    0.0000 N   0  0  0  0  0  0  0  0  0  0  0  0
    4.0796    0.6674    0.0000 C   0  0  0  0  0  0  0  0  0  0  0  0
    4.8642    0.4125    0.0000 C   0  0  0  0  0  0  0  0  0  0  0  0
    5.5787    0.8250    0.0000 C   0  0  0  0  0  0  0  0  0  0  0  0
    6.2931    0.4125    0.0000 C   0  0  0  0  0  0  0  0  0  0  0  0
    6.2931   -0.4125    0.0000 C   0  0  0  0  0  0  0  0  0  0  0  0
    5.5787   -0.8250    0.0000 C   0  0  0  0  0  0  0  0  0  0  0  0
    4.8642   -0.4125    0.0000 C   0  0  0  0  0  0  0  0  0  0  0  0
    4.0796   -0.6674    0.0000 C   0  0  0  0  0  0  0  0  0  0  0  0
  2  3  1  0  0  0  0
  3  4  2  0  0  0  0
  3  5  1  0  0  0  0
  5  6  1  0  0  0  0
  6  7  1  0  0  0  0
  7  8  2  0  0  0  0
  8  9  1  0  0  0  0
  9 10  2  0  0  0  0
 10 11  1  0  0  0  0
 11 12  2  0  0  0  0
  7 12  1  0  0  0  0
 12 13  1  0  0  0  0
  5 13  1  0  0  0  0
M  END
>  <Catalog ID>
Z1860991860

>  <PlateID>
1198308-R-SPFL-14

>  <Well>
C10

>  <MW (desalted)>
161.204

>  <ClogP>
0.536

>  <HBD>
2

>  <TPSA>
53.110

>  <RotBonds>
0

$$$$

            

 12 13  0  0  0  0            999 V2000
    0.0000   -2.4750    0.0000 C   0  0  0  0  0  0  0  0  0  0  0  0
    0.0000   -1.6500    0.0000 O   0  0  0  0  0  0  0  0  0  0  0  0
    0.7145   -1.2375    0.0000 C   0  0  0  0  0  0  0  0  0  0  0  0
    0.7145   -0.4125    0.0000 C   0  0  0  0  0  0  0  0  0  0  0  0
    1.4289    0.0000    0.0000 C   0  0  0  0  0  0  0  0  0  0  0  0
    2.1434   -0.4125    0.0000 C   0  0  0  0  0  0  0  0  0  0  0  0
    2.8579    0.0000    0.0000 C   0  0  0  0  0  0  0  0  0  0  0  0
    3.5724   -0.4125    0.0000 C   0  0  0  0  0  0  0  0  0  0  0  0
    3.5724   -1.2375    0.0000 C   0  0  0  0  0  0  0  0  0  0  0  0
    2.8579   -1.6500    0.0000 N   0  0  0  0  0  0  0  0  0  0  0  0
    2.1434   -1.2375    0.0000 C   0  0  0  0  0  0  0  0  0  0  0  0
    1.4289   -1.6500    0.0000 C   0  0  0  0  0  0  0  0  0  0  0  0
  1  2  1  0  0  0  0
  2  3  1  0  0  0  0
  3  4  2  0  0  0  0
  4  5  1  0  0  0  0
  5  6  2  0  0  0  0
  6  7  1  0  0  0  0
  7  8  1  0  0  0  0
  8  9  1  0  0  0  0
  9 10  1  0  0  0  0
 10 11  1  0  0  0  0
  6 11  1  0  0  0  0
 11 12  2  0  0  0  0
  3 12  1  0  0  0  0
M  END
>  <Catalog ID>
Z2517097762

>  <PlateID>
1198308-R-SPFL-14

>  <Well>
C11

>  <MW (desalted)>
163.216

>  <ClogP>
2.288

>  <HBD>
1

>  <TPSA>
21.260

>  <RotBonds>
1

$$$$

            

 15 16  0  0  0  0            999 V2000
    1.4289   -1.6500    0.0000 N   0  0  0  0  0  0  0  0  0  0  0  0
    1.4289   -2.4750    0.0000 C   0  0  0  0  0  0  0  0  0  0  0  0
    2.1434   -2.8875    0.0000 C   0  0  0  0  0  0  0  0  0  0  0  0
    2.1434   -3.7125    0.0000 N   0  0  0  0  0  0  0  0  0  0  0  0
    1.4289   -4.1250    0.0000 C   0  0  0  0  0  0  0  0  0  0  0  0
    0.7145   -3.7125    0.0000 C   0  0  0  0  0  0  0  0  0  0  0  0
    0.7145   -2.8875    0.0000 C   0  0  0  0  0  0  0  0  0  0  0  0
    0.0000   -2.4750    0.0000 O   0  0  0  0  0  0  0  0  0  0  0  0
   -0.7145   -2.8875    0.0000 C   0  0  0  0  0  0  0  0  0  0  0  0
   -1.4289   -2.4750    0.0000 C   0  0  0  0  0  0  0  0  0  0  0  0
   -2.1434   -2.8875    0.0000 C   0  0  0  0  0  0  0  0  0  0  0  0
   -2.8579   -2.4750    0.0000 C   0  0  0  0  0  0  0  0  0  0  0  0
   -2.8579   -1.6500    0.0000 C   0  0  0  0  0  0  0  0  0  0  0  0
   -2.1434   -1.2375    0.0000 C   0  0  0  0  0  0  0  0  0  0  0  0
   -1.4289   -1.6500    0.0000 C   0  0  0  0  0  0  0  0  0  0  0  0
  1  2  1  0  0  0  0
  2  3  2  0  0  0  0
  3  4  1  0  0  0  0
  4  5  2  0  0  0  0
  5  6  1  0  0  0  0
  6  7  2  0  0  0  0
  2  7  1  0  0  0  0
  7  8  1  0  0  0  0
  8  9  1  0  0  0  0
  9 10  1  0  0  0  0
 10 11  2  0  0  0  0
 11 12  1  0  0  0  0
 12 13  2  0  0  0  0
 13 14  1  0  0  0  0
 14 15  2  0  0  0  0
 10 15  1  0  0  0  0
M  END
>  <Catalog ID>
Z359373522

>  <PlateID>
1198308-R-SPFL-14

>  <Well>
D02

>  <MW (desalted)>
200.236

>  <ClogP>
2.710

>  <HBD>
1

>  <TPSA>
48.140

>  <RotBonds>
3

$$$$

            

 14 14  0  0  0  0            999 V2000
    0.0000    0.0000    0.0000 Cl  0  0  0  0  0  0  0  0  0  0  0  0
    2.3571   -1.7135    0.0000 N   0  0  0  0  0  0  0  0  0  0  0  0
    3.0716   -1.3010    0.0000 C   0  0  0  0  0  0  0  0  0  0  0  0
    3.0716   -0.4760    0.0000 C   0  0  0  0  0  0  0  0  0  0  0  0
    3.7861   -0.0635    0.0000 C   0  0  0  0  0  0  0  0  0  0  0  0
    3.7861    0.7615    0.0000 C   0  0  0  0  0  0  0  0  0  0  0  0
    4.5006    1.1740    0.0000 S   0  0  0  0  0  0  0  0  0  0  0  0
    5.2150    0.7615    0.0000 C   0  0  0  0  0  0  0  0  0  0  0  0
    5.9295    1.1740    0.0000 C   0  0  0  0  0  0  0  0  0  0  0  0
    6.6440    0.7615    0.0000 C   0  0  0  0  0  0  0  0  0  0  0  0
    6.6440   -0.0635    0.0000 C   0  0  0  0  0  0  0  0  0  0  0  0
    5.9295   -0.4760    0.0000 C   0  0  0  0  0  0  0  0  0  0  0  0
    5.2150   -0.0635    0.0000 C   0  0  0  0  0  0  0  0  0  0  0  0
    4.5006   -0.4760    0.0000 O   0  0  0  0  0  0  0  0  0  0  0  0
  2  3  1  0  0  0  0
  3  4  1  0  0  0  0
  4  5  1  0  0  0  0
  5  6  1  0  0  0  0
  6  7  1  0  0  0  0
  7  8  1  0  0  0  0
  8  9  2  0  0  0  0
  9 10  1  0  0  0  0
 10 11  2  0  0  0  0
 11 12  1  0  0  0  0
 12 13  2  0  0  0  0
  8 13  1  0  0  0  0
 13 14  1  0  0  0  0
  5 14  1  0  0  0  0
M  END
>  <Catalog ID>
Z2379807813

>  <PlateID>
1198308-R-SPFL-14

>  <Well>
D03

>  <MW (desalted)>
195.281

>  <ClogP>
2.053

>  <HBD>
1

>  <TPSA>
35.250

>  <RotBonds>
2

$$$$

            

 12 13  0  0  0  0            999 V2000
    0.7145   -0.4125    0.0000 O   0  0  0  0  0  0  0  0  0  0  0  0
    0.7145   -1.2375    0.0000 C   0  0  0  0  0  0  0  0  0  0  0  0
    1.3819   -1.7224    0.0000 C   0  0  0  0  0  0  0  0  0  0  0  0
    1.1270   -2.5070    0.0000 C   0  0  0  0  0  0  0  0  0  0  0  0
    0.3020   -2.5070    0.0000 C   0  0  0  0  0  0  0  0  0  0  0  0
    0.0470   -1.7224    0.0000 N   0  0  0  0  0  0  0  0  0  0  0  0
   -0.7376   -1.4675    0.0000 C   0  0  0  0  0  0  0  0  0  0  0  0
   -1.3507   -2.0195    0.0000 C   0  0  0  0  0  0  0  0  0  0  0  0
   -2.1353   -1.7646    0.0000 C   0  0  0  0  0  0  0  0  0  0  0  0
   -2.3068   -0.9576    0.0000 C   0  0  0  0  0  0  0  0  0  0  0  0
   -1.6937   -0.4056    0.0000 C   0  0  0  0  0  0  0  0  0  0  0  0
   -0.9091   -0.6605    0.0000 C   0  0  0  0  0  0  0  0  0  0  0  0
  1  2  2  0  0  0  0
  2  3  1  0  0  0  0
  3  4  1  0  0  0  0
  4  5  1  0  0  0  0
  5  6  1  0  0  0  0
  2  6  1  0  0  0  0
  6  7  1  0  0  0  0
  7  8  2  0  0  0  0
  8  9  1  0  0  0  0
  9 10  2  0  0  0  0
 10 11  1  0  0  0  0
 11 12  2  0  0  0  0
  7 12  1  0  0  0  0
M  END
>  <Catalog ID>
Z55670889

>  <PlateID>
1198308-R-SPFL-14

>  <Well>
D04

>  <MW (desalted)>
161.200

>  <ClogP>
2.102

>  <HBD>
0

>  <TPSA>
20.310

>  <RotBonds>
1

$$$$

            

 13 14  0  0  0  0            999 V2000
    2.1434   -0.4125    0.0000 C   0  0  0  0  0  0  0  0  0  0  0  0
    2.1434   -1.2375    0.0000 N   0  0  0  0  0  0  0  0  0  0  0  0
    2.8579   -1.6500    0.0000 C   0  0  0  0  0  0  0  0  0  0  0  0
    2.8579   -2.4750    0.0000 C   0  0  0  0  0  0  0  0  0  0  0  0
    2.1434   -2.8875    0.0000 O   0  0  0  0  0  0  0  0  0  0  0  0
    1.4289   -2.4750    0.0000 C   0  0  0  0  0  0  0  0  0  0  0  0
    1.4289   -1.6500    0.0000 C   0  0  0  0  0  0  0  0  0  0  0  0
    2.8579    0.0000    0.0000 C   0  0  0  0  0  0  0  0  0  0  0  0
    2.8579    0.8250    0.0000 C   0  0  0  0  0  0  0  0  0  0  0  0
    3.5724    1.2375    0.0000 C   0  0  0  0  0  0  0  0  0  0  0  0
    4.2868    0.8250    0.0000 C   0  0  0  0  0  0  0  0  0  0  0  0
    4.2868    0.0000    0.0000 C   0  0  0  0  0  0  0  0  0  0  0  0
    3.5724   -0.4125    0.0000 C   0  0  0  0  0  0  0  0  0  0  0  0
  1  2  1  0  0  0  0
  2  3  1  0  0  0  0
  3  4  1  0  0  0  0
  4  5  1  0  0  0  0
  5  6  1  0  0  0  0
  6  7  1  0  0  0  0
  2  7  1  0  0  0  0
  1  8  1  0  0  0  0
  8  9  2  0  0  0  0
  9 10  1  0  0  0  0
 10 11  2  0  0  0  0
 11 12  1  0  0  0  0
 12 13  2  0  0  0  0
  8 13  1  0  0  0  0
M  END
>  <Catalog ID>
Z54747691

>  <PlateID>
1198308-R-SPFL-14

>  <Well>
D05

>  <MW (desalted)>
177.243

>  <ClogP>
1.889

>  <HBD>
0

>  <TPSA>
12.470

>  <RotBonds>
2

$$$$

            

 10 10  0  0  0  0            999 V2000
   -0.8612    3.5893    0.0000 O   0  0  0  0  0  0  0  0  0  0  0  0
   -0.1467    3.1768    0.0000 C   0  0  0  0  0  0  0  0  0  0  0  0
    0.5678    3.5893    0.0000 O   0  0  0  0  0  0  0  0  0  0  0  0
   -0.1467    2.3518    0.0000 C   0  0  0  0  0  0  0  0  0  0  0  0
    0.5678    1.9393    0.0000 C   0  0  0  0  0  0  0  0  0  0  0  0
    0.5678    1.1143    0.0000 C   0  0  0  0  0  0  0  0  0  0  0  0
    1.2352    0.6294    0.0000 N   0  0  0  0  0  0  0  0  0  0  0  0
    0.9803   -0.1553    0.0000 C   0  0  0  0  0  0  0  0  0  0  0  0
    0.1553   -0.1553    0.0000 C   0  0  0  0  0  0  0  0  0  0  0  0
   -0.0997    0.6294    0.0000 S   0  0  0  0  0  0  0  0  0  0  0  0
  1  2  1  0  0  0  0
  2  3  2  0  0  0  0
  2  4  1  0  0  0  0
  4  5  1  0  0  0  0
  5  6  1  0  0  0  0
  6  7  2  0  0  0  0
  7  8  1  0  0  0  0
  8  9  2  0  0  0  0
  9 10  1  0  0  0  0
  6 10  1  0  0  0  0
M  END
>  <Catalog ID>
Z381407426

>  <PlateID>
1198308-R-SPFL-14

>  <Well>
D06

>  <MW (desalted)>
157.190

>  <ClogP>
0.247

>  <HBD>
1

>  <TPSA>
50.190

>  <RotBonds>
3

$$$$

            

 12 12  0  0  0  0            999 V2000
    0.0000    0.0000    0.0000 Cl  0  0  0  0  0  0  0  0  0  0  0  0
    3.0716   -1.5000    0.0000 N   0  0  0  0  0  0  0  0  0  0  0  0
    3.0716   -0.6750    0.0000 C   0  0  0  0  0  0  0  0  0  0  0  0
    2.3571   -0.2625    0.0000 C   0  0  0  0  0  0  0  0  0  0  0  0
    2.3571    0.5625    0.0000 O   0  0  0  0  0  0  0  0  0  0  0  0
    3.0716    0.9750    0.0000 C   0  0  0  0  0  0  0  0  0  0  0  0
    3.7861    0.5625    0.0000 C   0  0  0  0  0  0  0  0  0  0  0  0
    4.5006    0.9750    0.0000 C   0  0  0  0  0  0  0  0  0  0  0  0
    5.2150    0.5625    0.0000 C   0  0  0  0  0  0  0  0  0  0  0  0
    5.2150   -0.2625    0.0000 C   0  0  0  0  0  0  0  0  0  0  0  0
    4.5006   -0.6750    0.0000 C   0  0  0  0  0  0  0  0  0  0  0  0
    3.7861   -0.2625    0.0000 C   0  0  0  0  0  0  0  0  0  0  0  0
  2  3  1  0  0  0  0
  3  4  1  0  0  0  0
  4  5  1  0  0  0  0
  5  6  1  0  0  0  0
  6  7  1  0  0  0  0
  7  8  2  0  0  0  0
  8  9  1  0  0  0  0
  9 10  2  0  0  0  0
 10 11  1  0  0  0  0
 11 12  2  0  0  0  0
  3 12  1  0  0  0  0
  7 12  1  0  0  0  0
M  END
>  <Catalog ID>
Z1198178449

>  <PlateID>
1198308-R-SPFL-14

>  <Well>
D07

>  <MW (desalted)>
149.190

>  <ClogP>
0.531

>  <HBD>
1

>  <TPSA>
35.250

>  <RotBonds>
0

$$$$

            

 13 14  0  0  0  0            999 V2000
    0.8838   -2.1500    0.0000 C   0  0  0  0  0  0  0  0  0  0  0  0
    1.1387   -1.3654    0.0000 N   0  0  0  0  0  0  0  0  0  0  0  0
    0.6538   -0.6979    0.0000 C   0  0  0  0  0  0  0  0  0  0  0  0
    1.1387   -0.0305    0.0000 C   0  0  0  0  0  0  0  0  0  0  0  0
    1.9233   -0.2854    0.0000 C   0  0  0  0  0  0  0  0  0  0  0  0
    2.6378    0.1271    0.0000 C   0  0  0  0  0  0  0  0  0  0  0  0
    3.3523   -0.2854    0.0000 C   0  0  0  0  0  0  0  0  0  0  0  0
    3.3523   -1.1104    0.0000 C   0  0  0  0  0  0  0  0  0  0  0  0
    2.6378   -1.5229    0.0000 C   0  0  0  0  0  0  0  0  0  0  0  0
    1.9233   -1.1104    0.0000 C   0  0  0  0  0  0  0  0  0  0  0  0
    4.0668    0.1271    0.0000 C   0  0  0  0  0  0  0  0  0  0  0  0
    4.0668    0.9521    0.0000 O   0  0  0  0  0  0  0  0  0  0  0  0
    4.7812   -0.2854    0.0000 O   0  0  0  0  0  0  0  0  0  0  0  0
  1  2  1  0  0  0  0
  2  3  1  0  0  0  0
  3  4  1  0  0  0  0
  4  5  1  0  0  0  0
  5  6  2  0  0  0  0
  6  7  1  0  0  0  0
  7  8  2  0  0  0  0
  8  9  1  0  0  0  0
  9 10  2  0  0  0  0
  2 10  1  0  0  0  0
  5 10  1  0  0  0  0
  7 11  1  0  0  0  0
 11 12  2  0  0  0  0
 11 13  1  0  0  0  0
M  END
>  <Catalog ID>
Z951175606

>  <PlateID>
1198308-R-SPFL-14

>  <Well>
D08

>  <MW (desalted)>
177.200

>  <ClogP>
2.500

>  <HBD>
1

>  <TPSA>
40.540

>  <RotBonds>
1

$$$$

            

 14 15  0  0  0  0            999 V2000
    0.0000    0.0000    0.0000 O   0  0  0  0  0  0  0  0  0  0  0  0
    0.7145   -0.4125    0.0000 C   0  0  0  0  0  0  0  0  0  0  0  0
    1.4289   -0.0000    0.0000 O   0  0  0  0  0  0  0  0  0  0  0  0
    0.7145   -1.2375    0.0000 C   0  0  0  0  0  0  0  0  0  0  0  0
    1.3819   -1.7224    0.0000 C   0  0  0  0  0  0  0  0  0  0  0  0
    1.1270   -2.5070    0.0000 C   0  0  0  0  0  0  0  0  0  0  0  0
    0.3020   -2.5070    0.0000 N   0  0  0  0  0  0  0  0  0  0  0  0
    0.0470   -1.7224    0.0000 O   0  0  0  0  0  0  0  0  0  0  0  0
    1.6119   -3.1745    0.0000 C   0  0  0  0  0  0  0  0  0  0  0  0
    2.4324   -3.0882    0.0000 C   0  0  0  0  0  0  0  0  0  0  0  0
    2.9173   -3.7557    0.0000 C   0  0  0  0  0  0  0  0  0  0  0  0
    2.5817   -4.5094    0.0000 C   0  0  0  0  0  0  0  0  0  0  0  0
    1.7613   -4.5956    0.0000 C   0  0  0  0  0  0  0  0  0  0  0  0
    1.2763   -3.9282    0.0000 C   0  0  0  0  0  0  0  0  0  0  0  0
  1  2  1  0  0  0  0
  2  3  2  0  0  0  0
  2  4  1  0  0  0  0
  4  5  2  0  0  0  0
  5  6  1  0  0  0  0
  6  7  2  0  0  0  0
  7  8  1  0  0  0  0
  4  8  1  0  0  0  0
  6  9  1  0  0  0  0
  9 10  2  0  0  0  0
 10 11  1  0  0  0  0
 11 12  2  0  0  0  0
 12 13  1  0  0  0  0
 13 14  2  0  0  0  0
  9 14  1  0  0  0  0
M  END
>  <Catalog ID>
Z57140876

>  <PlateID>
1198308-R-SPFL-14

>  <Well>
D09

>  <MW (desalted)>
189.167

>  <ClogP>
2.445

>  <HBD>
1

>  <TPSA>
63.330

>  <RotBonds>
2

$$$$

            

 11 11  0  0  0  0            999 V2000
    0.0000    0.0000    0.0000 Cl  0  0  0  0  0  0  0  0  0  0  0  0
    2.3571    0.0000    0.0000 C   0  0  0  0  0  0  0  0  0  0  0  0
    2.9405    0.5834    0.0000 C   0  0  0  0  0  0  0  0  0  0  0  0
    3.5239    0.0000    0.0000 C   0  0  0  0  0  0  0  0  0  0  0  0
    2.9405   -0.5834    0.0000 C   0  0  0  0  0  0  0  0  0  0  0  0
    3.8818    0.7433    0.0000 C   0  0  0  0  0  0  0  0  0  0  0  0
    4.6861    0.9269    0.0000 C   0  0  0  0  0  0  0  0  0  0  0  0
    5.3311    0.4125    0.0000 N   0  0  0  0  0  0  0  0  0  0  0  0
    5.3311   -0.4125    0.0000 C   0  0  0  0  0  0  0  0  0  0  0  0
    4.6861   -0.9269    0.0000 C   0  0  0  0  0  0  0  0  0  0  0  0
    3.8818   -0.7433    0.0000 S   0  0  0  0  0  0  0  0  0  0  0  0
  2  3  1  0  0  0  0
  3  4  1  0  0  0  0
  4  5  1  0  0  0  0
  2  5  1  0  0  0  0
  4  6  1  0  0  0  0
  6  7  1  0  0  0  0
  7  8  1  0  0  0  0
  8  9  1  0  0  0  0
  9 10  1  0  0  0  0
 10 11  1  0  0  0  0
  4 11  1  0  0  0  0
M  END
>  <Catalog ID>
Z2299686620

>  <PlateID>
1198308-R-SPFL-14

>  <Well>
D10

>  <MW (desalted)>
157.276

>  <ClogP>
1.418

>  <HBD>
1

>  <TPSA>
12.030

>  <RotBonds>
0

$$$$

            

 13 14  0  0  0  0            999 V2000
    0.6288   -2.9346    0.0000 C   0  0  0  0  0  0  0  0  0  0  0  0
    0.8838   -2.1500    0.0000 C   0  0  0  0  0  0  0  0  0  0  0  0
    1.6684   -2.4049    0.0000 C   0  0  0  0  0  0  0  0  0  0  0  0
    0.0992   -1.8951    0.0000 N   0  0  0  0  0  0  0  0  0  0  0  0
    1.1387   -1.3654    0.0000 C   0  0  0  0  0  0  0  0  0  0  0  0
    0.6538   -0.6979    0.0000 N   0  0  0  0  0  0  0  0  0  0  0  0
    1.1387   -0.0305    0.0000 N   0  0  0  0  0  0  0  0  0  0  0  0
    1.9233   -0.2854    0.0000 C   0  0  0  0  0  0  0  0  0  0  0  0
    2.6378    0.1271    0.0000 C   0  0  0  0  0  0  0  0  0  0  0  0
    3.3523   -0.2854    0.0000 C   0  0  0  0  0  0  0  0  0  0  0  0
    3.3523   -1.1104    0.0000 C   0  0  0  0  0  0  0  0  0  0  0  0
    2.6378   -1.5229    0.0000 C   0  0  0  0  0  0  0  0  0  0  0  0
    1.9233   -1.1104    0.0000 N   0  0  0  0  0  0  0  0  0  0  0  0
  1  2  1  0  0  0  0
  2  3  1  0  0  0  0
  2  4  1  0  0  0  0
  2  5  1  0  0  0  0
  5  6  2  0  0  0  0
  6  7  1  0  0  0  0
  7  8  2  0  0  0  0
  8  9  1  0  0  0  0
  9 10  1  0  0  0  0
 10 11  1  0  0  0  0
 11 12  1  0  0  0  0
 12 13  1  0  0  0  0
  5 13  1  0  0  0  0
  8 13  1  0  0  0  0
M  END
>  <Catalog ID>
Z1436127033

>  <PlateID>
1198308-R-SPFL-14

>  <Well>
D11

>  <MW (desalted)>
180.250

>  <ClogP>
-0.578

>  <HBD>
1

>  <TPSA>
56.730

>  <RotBonds>
1

$$$$

            

 11 12  0  0  0  0            999 V2000
   -0.4909    5.5819    0.0000 N   0  0  0  0  0  0  0  0  0  0  0  0
   -0.1554    4.8282    0.0000 C   0  0  0  0  0  0  0  0  0  0  0  0
    0.6651    4.7420    0.0000 O   0  0  0  0  0  0  0  0  0  0  0  0
   -0.6403    4.1608    0.0000 C   0  0  0  0  0  0  0  0  0  0  0  0
   -0.3853    3.3761    0.0000 C   0  0  0  0  0  0  0  0  0  0  0  0
   -1.0528    2.8912    0.0000 C   0  0  0  0  0  0  0  0  0  0  0  0
   -1.7202    3.3761    0.0000 O   0  0  0  0  0  0  0  0  0  0  0  0
   -1.4653    4.1608    0.0000 N   0  0  0  0  0  0  0  0  0  0  0  0
   -1.0528    2.0662    0.0000 C   0  0  0  0  0  0  0  0  0  0  0  0
   -0.6403    1.3517    0.0000 C   0  0  0  0  0  0  0  0  0  0  0  0
   -1.4653    1.3517    0.0000 C   0  0  0  0  0  0  0  0  0  0  0  0
  1  2  1  0  0  0  0
  2  3  2  0  0  0  0
  2  4  1  0  0  0  0
  4  5  1  0  0  0  0
  5  6  2  0  0  0  0
  6  7  1  0  0  0  0
  7  8  1  0  0  0  0
  4  8  2  0  0  0  0
  6  9  1  0  0  0  0
  9 10  1  0  0  0  0
 10 11  1  0  0  0  0
  9 11  1  0  0  0  0
M  END
>  <Catalog ID>
Z287484426

>  <PlateID>
1198308-R-SPFL-14

>  <Well>
E02

>  <MW (desalted)>
152.151

>  <ClogP>
0.049

>  <HBD>
1

>  <TPSA>
69.120

>  <RotBonds>
2

$$$$

            

 12 12  0  0  0  0            999 V2000
    0.0000    0.0000    0.0000 Cl  0  0  0  0  0  0  0  0  0  0  0  0
    4.3412    1.6500    0.0000 F   0  0  0  0  0  0  0  0  0  0  0  0
    4.3412    0.8250    0.0000 C   0  0  0  0  0  0  0  0  0  0  0  0
    5.0556    0.4125    0.0000 C   0  0  0  0  0  0  0  0  0  0  0  0
    5.0556   -0.4125    0.0000 C   0  0  0  0  0  0  0  0  0  0  0  0
    4.3412   -0.8250    0.0000 C   0  0  0  0  0  0  0  0  0  0  0  0
    4.3412   -1.6500    0.0000 F   0  0  0  0  0  0  0  0  0  0  0  0
    3.6267   -0.4125    0.0000 C   0  0  0  0  0  0  0  0  0  0  0  0
    2.8421   -0.6674    0.0000 N   0  0  0  0  0  0  0  0  0  0  0  0
    2.3571   -0.0000    0.0000 C   0  0  0  0  0  0  0  0  0  0  0  0
    2.8421    0.6674    0.0000 C   0  0  0  0  0  0  0  0  0  0  0  0
    3.6267    0.4125    0.0000 C   0  0  0  0  0  0  0  0  0  0  0  0
  2  3  1  0  0  0  0
  3  4  2  0  0  0  0
  4  5  1  0  0  0  0
  5  6  2  0  0  0  0
  6  7  1  0  0  0  0
  6  8  1  0  0  0  0
  8  9  1  0  0  0  0
  9 10  1  0  0  0  0
 10 11  1  0  0  0  0
 11 12  1  0  0  0  0
  8 12  2  0  0  0  0
  3 12  1  0  0  0  0
M  END
>  <Catalog ID>
Z2213893397

>  <PlateID>
1198308-R-SPFL-14

>  <Well>
E03

>  <MW (desalted)>
155.145

>  <ClogP>
2.470

>  <HBD>
1

>  <TPSA>
12.030

>  <RotBonds>
0

$$$$

            

 11 12  0  0  0  0            999 V2000
    0.0000   -0.0000    0.0000 N   0  0  0  0  0  0  0  0  0  0  0  0
    0.7145   -0.4125    0.0000 C   0  0  0  0  0  0  0  0  0  0  0  0
    1.4289    0.0000    0.0000 C   0  0  0  0  0  0  0  0  0  0  0  0
    2.1434   -0.4125    0.0000 C   0  0  0  0  0  0  0  0  0  0  0  0
    2.8579    0.0000    0.0000 C   0  0  0  0  0  0  0  0  0  0  0  0
    3.5724   -0.4125    0.0000 C   0  0  0  0  0  0  0  0  0  0  0  0
    3.5724   -1.2375    0.0000 C   0  0  0  0  0  0  0  0  0  0  0  0
    2.8579   -1.6500    0.0000 C   0  0  0  0  0  0  0  0  0  0  0  0
    2.1434   -1.2375    0.0000 C   0  0  0  0  0  0  0  0  0  0  0  0
    1.4289   -1.6500    0.0000 C   0  0  0  0  0  0  0  0  0  0  0  0
    0.7145   -1.2375    0.0000 N   0  0  0  0  0  0  0  0  0  0  0  0
  1  2  1  0  0  0  0
  2  3  2  0  0  0  0
  3  4  1  0  0  0  0
  4  5  1  0  0  0  0
  5  6  1  0  0  0  0
  6  7  1  0  0  0  0
  7  8  1  0  0  0  0
  8  9  1  0  0  0  0
  4  9  2  0  0  0  0
  9 10  1  0  0  0  0
 10 11  2  0  0  0  0
  2 11  1  0  0  0  0
M  END
>  <Catalog ID>
Z1198275331

>  <PlateID>
1198308-R-SPFL-14

>  <Well>
E04

>  <MW (desalted)>
148.205

>  <ClogP>
1.890

>  <HBD>
1

>  <TPSA>
38.910

>  <RotBonds>
0

$$$$

            

 15 16  0  0  0  0            999 V2000
    1.4358   -2.7631    0.0000 C   0  0  0  0  0  0  0  0  0  0  0  0
    0.8838   -2.1500    0.0000 C   0  0  0  0  0  0  0  0  0  0  0  0
    0.0768   -2.3215    0.0000 C   0  0  0  0  0  0  0  0  0  0  0  0
   -0.1781   -3.1062    0.0000 C   0  0  0  0  0  0  0  0  0  0  0  0
   -0.9851   -3.2777    0.0000 O   0  0  0  0  0  0  0  0  0  0  0  0
    0.3739   -3.7192    0.0000 O   0  0  0  0  0  0  0  0  0  0  0  0
    1.1387   -1.3654    0.0000 N   0  0  0  0  0  0  0  0  0  0  0  0
    0.6538   -0.6979    0.0000 C   0  0  0  0  0  0  0  0  0  0  0  0
    1.1387   -0.0305    0.0000 C   0  0  0  0  0  0  0  0  0  0  0  0
    1.9233   -0.2854    0.0000 C   0  0  0  0  0  0  0  0  0  0  0  0
    2.6378    0.1271    0.0000 C   0  0  0  0  0  0  0  0  0  0  0  0
    3.3523   -0.2854    0.0000 C   0  0  0  0  0  0  0  0  0  0  0  0
    3.3523   -1.1104    0.0000 C   0  0  0  0  0  0  0  0  0  0  0  0
    2.6378   -1.5229    0.0000 C   0  0  0  0  0  0  0  0  0  0  0  0
    1.9233   -1.1104    0.0000 C   0  0  0  0  0  0  0  0  0  0  0  0
  1  2  1  0  0  0  0
  2  3  1  0  0  0  0
  3  4  1  0  0  0  0
  4  5  2  0  0  0  0
  4  6  1  0  0  0  0
  2  7  1  0  0  0  0
  7  8  1  0  0  0  0
  8  9  1  0  0  0  0
  9 10  1  0  0  0  0
 10 11  2  0  0  0  0
 11 12  1  0  0  0  0
 12 13  2  0  0  0  0
 13 14  1  0  0  0  0
 14 15  2  0  0  0  0
  7 15  1  0  0  0  0
 10 15  1  0  0  0  0
M  END
>  <Catalog ID>
Z431539404

>  <PlateID>
1198308-R-SPFL-14

>  <Well>
E05

>  <MW (desalted)>
205.253

>  <ClogP>
2.487

>  <HBD>
1

>  <TPSA>
40.540

>  <RotBonds>
3

$$$$

            

 11 11  0  0  0  0            999 V2000
    1.2822    3.1768    0.0000 C   0  0  0  0  0  0  0  0  0  0  0  0
    1.2822    2.3518    0.0000 O   0  0  0  0  0  0  0  0  0  0  0  0
    0.5678    1.9393    0.0000 C   0  0  0  0  0  0  0  0  0  0  0  0
    0.5678    1.1143    0.0000 C   0  0  0  0  0  0  0  0  0  0  0  0
    1.2352    0.6294    0.0000 C   0  0  0  0  0  0  0  0  0  0  0  0
    0.9803   -0.1553    0.0000 C   0  0  0  0  0  0  0  0  0  0  0  0
    0.1553   -0.1553    0.0000 C   0  0  0  0  0  0  0  0  0  0  0  0
   -0.0997    0.6294    0.0000 O   0  0  0  0  0  0  0  0  0  0  0  0
   -0.3297   -0.8227    0.0000 C   0  0  0  0  0  0  0  0  0  0  0  0
    0.0059   -1.5764    0.0000 O   0  0  0  0  0  0  0  0  0  0  0  0
   -1.1501   -0.7365    0.0000 O   0  0  0  0  0  0  0  0  0  0  0  0
  1  2  1  0  0  0  0
  2  3  1  0  0  0  0
  3  4  1  0  0  0  0
  4  5  2  0  0  0  0
  5  6  1  0  0  0  0
  6  7  2  0  0  0  0
  7  8  1  0  0  0  0
  4  8  1  0  0  0  0
  7  9  1  0  0  0  0
  9 10  2  0  0  0  0
  9 11  1  0  0  0  0
M  END
>  <Catalog ID>
Z166631684

>  <PlateID>
1198308-R-SPFL-14

>  <Well>
E06

>  <MW (desalted)>
156.136

>  <ClogP>
0.859

>  <HBD>
1

>  <TPSA>
59.670

>  <RotBonds>
3

$$$$

            

 11 12  0  0  0  0            999 V2000
   -0.1712   -0.6979    0.0000 C   0  0  0  0  0  0  0  0  0  0  0  0
    0.6538   -0.6979    0.0000 C   0  0  0  0  0  0  0  0  0  0  0  0
    1.1387   -0.0305    0.0000 C   0  0  0  0  0  0  0  0  0  0  0  0
    1.9233   -0.2854    0.0000 C   0  0  0  0  0  0  0  0  0  0  0  0
    2.6378    0.1271    0.0000 C   0  0  0  0  0  0  0  0  0  0  0  0
    2.6378    0.9521    0.0000 O   0  0  0  0  0  0  0  0  0  0  0  0
    3.3523   -0.2854    0.0000 N   0  0  0  0  0  0  0  0  0  0  0  0
    3.3523   -1.1104    0.0000 C   0  0  0  0  0  0  0  0  0  0  0  0
    2.6378   -1.5229    0.0000 N   0  0  0  0  0  0  0  0  0  0  0  0
    1.9233   -1.1104    0.0000 N   0  0  0  0  0  0  0  0  0  0  0  0
    1.1387   -1.3654    0.0000 C   0  0  0  0  0  0  0  0  0  0  0  0
  1  2  1  0  0  0  0
  2  3  1  0  0  0  0
  3  4  2  0  0  0  0
  4  5  1  0  0  0  0
  5  6  2  0  0  0  0
  5  7  1  0  0  0  0
  7  8  1  0  0  0  0
  8  9  2  0  0  0  0
  9 10  1  0  0  0  0
  4 10  1  0  0  0  0
 10 11  1  0  0  0  0
  2 11  2  0  0  0  0
M  END
>  <Catalog ID>
Z1203747655

>  <PlateID>
1198308-R-SPFL-14

>  <Well>
E07

>  <MW (desalted)>
149.150

>  <ClogP>
-0.205

>  <HBD>
1

>  <TPSA>
46.390

>  <RotBonds>
0

$$$$

            

 12 12  0  0  0  0            999 V2000
    0.0000    0.0000    0.0000 Cl  0  0  0  0  0  0  0  0  0  0  0  0
    2.3571    0.1320    0.0000 C   0  0  0  0  0  0  0  0  0  0  0  0
    3.1821    0.1320    0.0000 C   0  0  0  0  0  0  0  0  0  0  0  0
    3.6671    0.7994    0.0000 N   0  0  0  0  0  0  0  0  0  0  0  0
    4.4517    0.5445    0.0000 C   0  0  0  0  0  0  0  0  0  0  0  0
    5.1662    0.9570    0.0000 N   0  0  0  0  0  0  0  0  0  0  0  0
    5.8806    0.5445    0.0000 C   0  0  0  0  0  0  0  0  0  0  0  0
    5.8806   -0.2805    0.0000 C   0  0  0  0  0  0  0  0  0  0  0  0
    5.1662   -0.6930    0.0000 C   0  0  0  0  0  0  0  0  0  0  0  0
    4.4517   -0.2805    0.0000 N   0  0  0  0  0  0  0  0  0  0  0  0
    3.6671   -0.5354    0.0000 C   0  0  0  0  0  0  0  0  0  0  0  0
    3.4121   -1.3201    0.0000 C   0  0  0  0  0  0  0  0  0  0  0  0
  2  3  1  0  0  0  0
  3  4  1  0  0  0  0
  4  5  2  0  0  0  0
  5  6  1  0  0  0  0
  6  7  1  0  0  0  0
  7  8  1  0  0  0  0
  8  9  1  0  0  0  0
  9 10  1  0  0  0  0
  5 10  1  0  0  0  0
 10 11  1  0  0  0  0
  3 11  2  0  0  0  0
 11 12  1  0  0  0  0
M  END
>  <Catalog ID>
Z2527854043

>  <PlateID>
1198308-R-SPFL-14

>  <Well>
E08

>  <MW (desalted)>
151.209

>  <ClogP>
1.041

>  <HBD>
1

>  <TPSA>
29.850

>  <RotBonds>
0

$$$$

            

 15 15  0  0  0  0            999 V2000
    0.0000    0.0000    0.0000 Cl  0  0  0  0  0  0  0  0  0  0  0  0
    2.3571    2.9553    0.0000 N   0  0  0  0  0  0  0  0  0  0  0  0
    3.0716    2.5428    0.0000 C   0  0  0  0  0  0  0  0  0  0  0  0
    3.0716    1.7178    0.0000 C   0  0  0  0  0  0  0  0  0  0  0  0
    3.7391    1.2329    0.0000 N   0  0  0  0  0  0  0  0  0  0  0  0
    3.4841    0.4483    0.0000 C   0  0  0  0  0  0  0  0  0  0  0  0
    3.9690   -0.2192    0.0000 C   0  0  0  0  0  0  0  0  0  0  0  0
    3.6335   -0.9728    0.0000 C   0  0  0  0  0  0  0  0  0  0  0  0
    4.1184   -1.6403    0.0000 C   0  0  0  0  0  0  0  0  0  0  0  0
    3.7828   -2.3940    0.0000 C   0  0  0  0  0  0  0  0  0  0  0  0
    2.9624   -2.4802    0.0000 C   0  0  0  0  0  0  0  0  0  0  0  0
    2.4774   -1.8128    0.0000 C   0  0  0  0  0  0  0  0  0  0  0  0
    2.8130   -1.0591    0.0000 C   0  0  0  0  0  0  0  0  0  0  0  0
    2.6591    0.4483    0.0000 N   0  0  0  0  0  0  0  0  0  0  0  0
    2.4042    1.2329    0.0000 O   0  0  0  0  0  0  0  0  0  0  0  0
  2  3  1  0  0  0  0
  3  4  1  0  0  0  0
  4  5  2  0  0  0  0
  5  6  1  0  0  0  0
  6  7  1  0  0  0  0
  7  8  1  0  0  0  0
  8  9  2  0  0  0  0
  9 10  1  0  0  0  0
 10 11  2  0  0  0  0
 11 12  1  0  0  0  0
 12 13  2  0  0  0  0
  8 13  1  0  0  0  0
  6 14  2  0  0  0  0
 14 15  1  0  0  0  0
  4 15  1  0  0  0  0
M  END
>  <Catalog ID>
Z910841730

>  <PlateID>
1198308-R-SPFL-14

>  <Well>
E09

>  <MW (desalted)>
189.214

>  <ClogP>
0.283

>  <HBD>
1

>  <TPSA>
64.940

>  <RotBonds>
3

$$$$

            

 12 12  0  0  0  0            999 V2000
    0.0000    4.1250    0.0000 F   0  0  0  0  0  0  0  0  0  0  0  0
    0.0000    3.3000    0.0000 C   0  0  0  0  0  0  0  0  0  0  0  0
   -0.8250    3.3000    0.0000 F   0  0  0  0  0  0  0  0  0  0  0  0
    0.8250    3.3000    0.0000 F   0  0  0  0  0  0  0  0  0  0  0  0
    0.0000    2.4750    0.0000 C   0  0  0  0  0  0  0  0  0  0  0  0
    0.7145    2.0625    0.0000 O   0  0  0  0  0  0  0  0  0  0  0  0
    0.7145    1.2375    0.0000 C   0  0  0  0  0  0  0  0  0  0  0  0
    1.4289    0.8250    0.0000 C   0  0  0  0  0  0  0  0  0  0  0  0
    1.4289   -0.0000    0.0000 C   0  0  0  0  0  0  0  0  0  0  0  0
    0.7145   -0.4125    0.0000 C   0  0  0  0  0  0  0  0  0  0  0  0
    0.0000    0.0000    0.0000 N   0  0  0  0  0  0  0  0  0  0  0  0
    0.0000    0.8250    0.0000 C   0  0  0  0  0  0  0  0  0  0  0  0
  1  2  1  0  0  0  0
  2  3  1  0  0  0  0
  2  4  1  0  0  0  0
  2  5  1  0  0  0  0
  5  6  1  0  0  0  0
  6  7  1  0  0  0  0
  7  8  2  0  0  0  0
  8  9  1  0  0  0  0
  9 10  2  0  0  0  0
 10 11  1  0  0  0  0
 11 12  2  0  0  0  0
  7 12  1  0  0  0  0
M  END
>  <Catalog ID>
Z336285046

>  <PlateID>
1198308-R-SPFL-14

>  <Well>
E10

>  <MW (desalted)>
177.124

>  <ClogP>
1.858

>  <HBD>
0

>  <TPSA>
22.120

>  <RotBonds>
3

$$$$

            

 12 13  0  0  0  0            999 V2000
   -0.5837   -1.4124    0.0000 N   0  0  0  0  0  0  0  0  0  0  0  0
   -0.1712   -0.6979    0.0000 C   0  0  0  0  0  0  0  0  0  0  0  0
    0.6538   -0.6979    0.0000 C   0  0  0  0  0  0  0  0  0  0  0  0
    1.1387   -0.0305    0.0000 C   0  0  0  0  0  0  0  0  0  0  0  0
    1.9233   -0.2854    0.0000 N   0  0  0  0  0  0  0  0  0  0  0  0
    2.6378    0.1271    0.0000 C   0  0  0  0  0  0  0  0  0  0  0  0
    3.3523   -0.2854    0.0000 C   0  0  0  0  0  0  0  0  0  0  0  0
    4.0668    0.1271    0.0000 Cl  0  0  0  0  0  0  0  0  0  0  0  0
    3.3523   -1.1104    0.0000 C   0  0  0  0  0  0  0  0  0  0  0  0
    2.6378   -1.5229    0.0000 C   0  0  0  0  0  0  0  0  0  0  0  0
    1.9233   -1.1104    0.0000 C   0  0  0  0  0  0  0  0  0  0  0  0
    1.1387   -1.3654    0.0000 N   0  0  0  0  0  0  0  0  0  0  0  0
  1  2  1  0  0  0  0
  2  3  1  0  0  0  0
  3  4  2  0  0  0  0
  4  5  1  0  0  0  0
  5  6  1  0  0  0  0
  6  7  2  0  0  0  0
  7  8  1  0  0  0  0
  7  9  1  0  0  0  0
  9 10  2  0  0  0  0
 10 11  1  0  0  0  0
  5 11  1  0  0  0  0
 11 12  2  0  0  0  0
  3 12  1  0  0  0  0
M  END
>  <Catalog ID>
Z56827249

>  <PlateID>
1198308-R-SPFL-14

>  <Well>
E11

>  <MW (desalted)>
181.622

>  <ClogP>
1.081

>  <HBD>
1

>  <TPSA>
43.320

>  <RotBonds>
1

$$$$

            

 11 11  0  0  0  0            999 V2000
    0.0000    0.0000    0.0000 Cl  0  0  0  0  0  0  0  0  0  0  0  0
    3.6550   -1.3400    0.0000 C   0  0  0  0  0  0  0  0  0  0  0  0
    3.0716   -1.9234    0.0000 N   0  0  0  0  0  0  0  0  0  0  0  0
    2.4883   -1.3400    0.0000 C   0  0  0  0  0  0  0  0  0  0  0  0
    3.0716   -0.7567    0.0000 C   0  0  0  0  0  0  0  0  0  0  0  0
    3.0716    0.0683    0.0000 C   0  0  0  0  0  0  0  0  0  0  0  0
    2.3571    0.4808    0.0000 C   0  0  0  0  0  0  0  0  0  0  0  0
    2.3571    1.3058    0.0000 C   0  0  0  0  0  0  0  0  0  0  0  0
    3.0716    1.7183    0.0000 C   0  0  0  0  0  0  0  0  0  0  0  0
    3.7861    1.3058    0.0000 C   0  0  0  0  0  0  0  0  0  0  0  0
    3.7861    0.4808    0.0000 C   0  0  0  0  0  0  0  0  0  0  0  0
  2  3  1  0  0  0  0
  3  4  1  0  0  0  0
  4  5  1  0  0  0  0
  2  5  1  0  0  0  0
  5  6  1  0  0  0  0
  6  7  1  0  0  0  0
  7  8  1  0  0  0  0
  8  9  1  0  0  0  0
  9 10  1  0  0  0  0
 10 11  1  0  0  0  0
  6 11  1  0  0  0  0
M  END
>  <Catalog ID>
Z2216711539

>  <PlateID>
1198308-R-SPFL-14

>  <Well>
F02

>  <MW (desalted)>
139.238

>  <ClogP>
2.367

>  <HBD>
1

>  <TPSA>
12.030

>  <RotBonds>
1

$$$$

            

 12 13  0  0  0  0            999 V2000
    0.7145   -0.4125    0.0000 C   0  0  0  0  0  0  0  0  0  0  0  0
    0.7145   -1.2375    0.0000 N   0  0  0  0  0  0  0  0  0  0  0  0
    1.3819   -1.7224    0.0000 N   0  0  0  0  0  0  0  0  0  0  0  0
    1.1270   -2.5070    0.0000 C   0  0  0  0  0  0  0  0  0  0  0  0
    0.3020   -2.5070    0.0000 C   0  0  0  0  0  0  0  0  0  0  0  0
    0.0470   -1.7224    0.0000 C   0  0  0  0  0  0  0  0  0  0  0  0
   -0.7376   -1.4675    0.0000 C   0  0  0  0  0  0  0  0  0  0  0  0
   -1.3507   -2.0195    0.0000 C   0  0  0  0  0  0  0  0  0  0  0  0
   -2.1353   -1.7646    0.0000 C   0  0  0  0  0  0  0  0  0  0  0  0
   -2.3068   -0.9576    0.0000 C   0  0  0  0  0  0  0  0  0  0  0  0
   -1.6937   -0.4056    0.0000 N   0  0  0  0  0  0  0  0  0  0  0  0
   -0.9091   -0.6605    0.0000 C   0  0  0  0  0  0  0  0  0  0  0  0
  1  2  1  0  0  0  0
  2  3  1  0  0  0  0
  3  4  2  0  0  0  0
  4  5  1  0  0  0  0
  5  6  2  0  0  0  0
  2  6  1  0  0  0  0
  6  7  1  0  0  0  0
  7  8  1  0  0  0  0
  8  9  1  0  0  0  0
  9 10  1  0  0  0  0
 10 11  1  0  0  0  0
 11 12  1  0  0  0  0
  7 12  1  0  0  0  0
M  END
>  <Catalog ID>
Z607750392

>  <PlateID>
1198308-R-SPFL-14

>  <Well>
F03

>  <MW (desalted)>
165.236

>  <ClogP>
0.378

>  <HBD>
1

>  <TPSA>
29.850

>  <RotBonds>
1

$$$$

            

 10 10  0  0  0  0            999 V2000
    1.2822    2.3518    0.0000 C   0  0  0  0  0  0  0  0  0  0  0  0
    0.5678    1.9393    0.0000 O   0  0  0  0  0  0  0  0  0  0  0  0
    0.5678    1.1143    0.0000 C   0  0  0  0  0  0  0  0  0  0  0  0
    1.2352    0.6294    0.0000 C   0  0  0  0  0  0  0  0  0  0  0  0
    0.9803   -0.1553    0.0000 C   0  0  0  0  0  0  0  0  0  0  0  0
    0.1553   -0.1553    0.0000 S   0  0  0  0  0  0  0  0  0  0  0  0
   -0.0997    0.6294    0.0000 C   0  0  0  0  0  0  0  0  0  0  0  0
   -0.8843    0.8843    0.0000 C   0  0  0  0  0  0  0  0  0  0  0  0
   -1.4974    0.3323    0.0000 O   0  0  0  0  0  0  0  0  0  0  0  0
   -1.0558    1.6913    0.0000 N   0  0  0  0  0  0  0  0  0  0  0  0
  1  2  1  0  0  0  0
  2  3  1  0  0  0  0
  3  4  1  0  0  0  0
  4  5  2  0  0  0  0
  5  6  1  0  0  0  0
  6  7  1  0  0  0  0
  3  7  2  0  0  0  0
  7  8  1  0  0  0  0
  8  9  2  0  0  0  0
  8 10  1  0  0  0  0
M  END
>  <Catalog ID>
Z1137167296

>  <PlateID>
1198308-R-SPFL-14

>  <Well>
F04

>  <MW (desalted)>
157.190

>  <ClogP>
0.518

>  <HBD>
1

>  <TPSA>
52.320

>  <RotBonds>
2

$$$$

            

 12 11  0  0  0  0            999 V2000
    0.0000    0.0000    0.0000 Cl  0  0  0  0  0  0  0  0  0  0  0  0
    3.7861    1.9875    0.0000 C   0  0  0  0  0  0  0  0  0  0  0  0
    4.5006    1.5750    0.0000 O   0  0  0  0  0  0  0  0  0  0  0  0
    4.5006    0.7500    0.0000 C   0  0  0  0  0  0  0  0  0  0  0  0
    5.2150    0.3375    0.0000 C   0  0  0  0  0  0  0  0  0  0  0  0
    5.2150   -0.4875    0.0000 C   0  0  0  0  0  0  0  0  0  0  0  0
    4.5006   -0.9000    0.0000 C   0  0  0  0  0  0  0  0  0  0  0  0
    4.5006   -1.7250    0.0000 F   0  0  0  0  0  0  0  0  0  0  0  0
    3.7861   -0.4875    0.0000 C   0  0  0  0  0  0  0  0  0  0  0  0
    3.0716   -0.9000    0.0000 C   0  0  0  0  0  0  0  0  0  0  0  0
    2.3571   -0.4875    0.0000 N   0  0  0  0  0  0  0  0  0  0  0  0
    3.7861    0.3375    0.0000 C   0  0  0  0  0  0  0  0  0  0  0  0
  2  3  1  0  0  0  0
  3  4  1  0  0  0  0
  4  5  2  0  0  0  0
  5  6  1  0  0  0  0
  6  7  2  0  0  0  0
  7  8  1  0  0  0  0
  7  9  1  0  0  0  0
  9 10  1  0  0  0  0
 10 11  1  0  0  0  0
  9 12  2  0  0  0  0
  4 12  1  0  0  0  0
M  END
>  <Catalog ID>
Z2526366648

>  <PlateID>
1198308-R-SPFL-14

>  <Well>
F05

>  <MW (desalted)>
155.170

>  <ClogP>
1.296

>  <HBD>
1

>  <TPSA>
35.250

>  <RotBonds>
2

$$$$

            

 14 14  0  0  0  0            999 V2000
    0.0000    0.0000    0.0000 Cl  0  0  0  0  0  0  0  0  0  0  0  0
    5.2446    1.9948    0.0000 N   0  0  0  0  0  0  0  0  0  0  0  0
    5.2446    1.1698    0.0000 C   0  0  0  0  0  0  0  0  0  0  0  0
    5.9120    0.6849    0.0000 N   0  0  0  0  0  0  0  0  0  0  0  0
    5.6571   -0.0997    0.0000 N   0  0  0  0  0  0  0  0  0  0  0  0
    4.8321   -0.0997    0.0000 C   0  0  0  0  0  0  0  0  0  0  0  0
    4.3472   -0.7671    0.0000 C   0  0  0  0  0  0  0  0  0  0  0  0
    3.5267   -0.6809    0.0000 C   0  0  0  0  0  0  0  0  0  0  0  0
    3.0418   -1.3483    0.0000 C   0  0  0  0  0  0  0  0  0  0  0  0
    2.2213   -1.2621    0.0000 C   0  0  0  0  0  0  0  0  0  0  0  0
    1.8857   -0.5084    0.0000 C   0  0  0  0  0  0  0  0  0  0  0  0
    2.3706    0.1590    0.0000 C   0  0  0  0  0  0  0  0  0  0  0  0
    3.1911    0.0728    0.0000 C   0  0  0  0  0  0  0  0  0  0  0  0
    4.5771    0.6849    0.0000 S   0  0  0  0  0  0  0  0  0  0  0  0
  2  3  1  0  0  0  0
  3  4  2  0  0  0  0
  4  5  1  0  0  0  0
  5  6  2  0  0  0  0
  6  7  1  0  0  0  0
  7  8  1  0  0  0  0
  8  9  2  0  0  0  0
  9 10  1  0  0  0  0
 10 11  2  0  0  0  0
 11 12  1  0  0  0  0
 12 13  2  0  0  0  0
  8 13  1  0  0  0  0
  6 14  1  0  0  0  0
  3 14  1  0  0  0  0
M  END
>  <Catalog ID>
Z2515518922

>  <PlateID>
1198308-R-SPFL-14

>  <Well>
F06

>  <MW (desalted)>
191.253

>  <ClogP>
1.611

>  <HBD>
1

>  <TPSA>
51.800

>  <RotBonds>
2

$$$$

            

 12 11  0  0  0  0            999 V2000
    0.0000    0.0000    0.0000 Cl  0  0  0  0  0  0  0  0  0  0  0  0
    4.4461    1.4245    0.0000 C   0  0  0  0  0  0  0  0  0  0  0  0
    4.4461    0.5995    0.0000 C   0  0  0  0  0  0  0  0  0  0  0  0
    5.1135    0.1145    0.0000 C   0  0  0  0  0  0  0  0  0  0  0  0
    4.8586   -0.6701    0.0000 C   0  0  0  0  0  0  0  0  0  0  0  0
    4.0336   -0.6701    0.0000 N   0  0  0  0  0  0  0  0  0  0  0  0
    3.7787    0.1145    0.0000 N   0  0  0  0  0  0  0  0  0  0  0  0
    2.9940    0.3695    0.0000 C   0  0  0  0  0  0  0  0  0  0  0  0
    2.3810   -0.1826    0.0000 C   0  0  0  0  0  0  0  0  0  0  0  0
    1.7679   -0.7346    0.0000 F   0  0  0  0  0  0  0  0  0  0  0  0
    1.8289    0.4305    0.0000 F   0  0  0  0  0  0  0  0  0  0  0  0
    2.9330   -0.7957    0.0000 F   0  0  0  0  0  0  0  0  0  0  0  0
  2  3  1  0  0  0  0
  3  4  2  0  0  0  0
  4  5  1  0  0  0  0
  5  6  2  0  0  0  0
  6  7  1  0  0  0  0
  3  7  1  0  0  0  0
  7  8  1  0  0  0  0
  8  9  1  0  0  0  0
  9 10  1  0  0  0  0
  9 11  1  0  0  0  0
  9 12  1  0  0  0  0
M  END
>  <Catalog ID>
Z2418537199

>  <PlateID>
1198308-R-SPFL-14

>  <Well>
F07

>  <MW (desalted)>
164.128

>  <ClogP>
0.819

>  <HBD>
0

>  <TPSA>
17.820

>  <RotBonds>
2

$$$$

            

 12 12  0  0  0  0            999 V2000
    0.0000    2.4750    0.0000 O   0  0  0  0  0  0  0  0  0  0  0  0
    0.7145    2.0625    0.0000 C   0  0  0  0  0  0  0  0  0  0  0  0
    0.7145    1.2375    0.0000 C   0  0  0  0  0  0  0  0  0  0  0  0
    1.4289    0.8250    0.0000 C   0  0  0  0  0  0  0  0  0  0  0  0
    1.4289   -0.0000    0.0000 C   0  0  0  0  0  0  0  0  0  0  0  0
    0.7145   -0.4125    0.0000 C   0  0  0  0  0  0  0  0  0  0  0  0
    0.7145   -1.2375    0.0000 O   0  0  0  0  0  0  0  0  0  0  0  0
   -0.0000   -1.6500    0.0000 C   0  0  0  0  0  0  0  0  0  0  0  0
   -0.0000   -2.4750    0.0000 F   0  0  0  0  0  0  0  0  0  0  0  0
   -0.7145   -1.2375    0.0000 F   0  0  0  0  0  0  0  0  0  0  0  0
    0.0000    0.0000    0.0000 C   0  0  0  0  0  0  0  0  0  0  0  0
    0.0000    0.8250    0.0000 C   0  0  0  0  0  0  0  0  0  0  0  0
  1  2  1  0  0  0  0
  2  3  1  0  0  0  0
  3  4  2  0  0  0  0
  4  5  1  0  0  0  0
  5  6  2  0  0  0  0
  6  7  1  0  0  0  0
  7  8  1  0  0  0  0
  8  9  1  0  0  0  0
  8 10  1  0  0  0  0
  6 11  1  0  0  0  0
 11 12  2  0  0  0  0
  3 12  1  0  0  0  0
M  END
>  <Catalog ID>
Z335244764

>  <PlateID>
1198308-R-SPFL-14

>  <Well>
F08

>  <MW (desalted)>
174.145

>  <ClogP>
1.469

>  <HBD>
1

>  <TPSA>
29.460

>  <RotBonds>
3

$$$$

            

 14 15  0  0  0  0            999 V2000
    2.1434   -0.4125    0.0000 O   0  0  0  0  0  0  0  0  0  0  0  0
    2.1434   -1.2375    0.0000 C   0  0  0  0  0  0  0  0  0  0  0  0
    2.8579   -1.6500    0.0000 C   0  0  0  0  0  0  0  0  0  0  0  0
    2.8579   -2.4750    0.0000 C   0  0  0  0  0  0  0  0  0  0  0  0
    2.1434   -2.8875    0.0000 C   0  0  0  0  0  0  0  0  0  0  0  0
    2.1434   -3.7125    0.0000 C   0  0  0  0  0  0  0  0  0  0  0  0
    1.4289   -4.1250    0.0000 C   0  0  0  0  0  0  0  0  0  0  0  0
    1.4289   -4.9500    0.0000 C   0  0  0  0  0  0  0  0  0  0  0  0
    0.7145   -5.3625    0.0000 C   0  0  0  0  0  0  0  0  0  0  0  0
   -0.0000   -4.9500    0.0000 C   0  0  0  0  0  0  0  0  0  0  0  0
    0.0000   -4.1250    0.0000 C   0  0  0  0  0  0  0  0  0  0  0  0
    0.7145   -3.7125    0.0000 C   0  0  0  0  0  0  0  0  0  0  0  0
    1.4289   -2.4750    0.0000 C   0  0  0  0  0  0  0  0  0  0  0  0
    1.4289   -1.6500    0.0000 N   0  0  0  0  0  0  0  0  0  0  0  0
  1  2  2  0  0  0  0
  2  3  1  0  0  0  0
  3  4  1  0  0  0  0
  4  5  1  0  0  0  0
  5  6  1  0  0  0  0
  6  7  1  0  0  0  0
  7  8  2  0  0  0  0
  8  9  1  0  0  0  0
  9 10  2  0  0  0  0
 10 11  1  0  0  0  0
 11 12  2  0  0  0  0
  7 12  1  0  0  0  0
  5 13  1  0  0  0  0
 13 14  1  0  0  0  0
  2 14  1  0  0  0  0
M  END
>  <Catalog ID>
Z1509334089

>  <PlateID>
1198308-R-SPFL-14

>  <Well>
F09

>  <MW (desalted)>
189.254

>  <ClogP>
1.523

>  <HBD>
1

>  <TPSA>
29.100

>  <RotBonds>
2

$$$$

            

 10 10  0  0  0  0            999 V2000
    1.2822    2.3518    0.0000 C   0  0  0  0  0  0  0  0  0  0  0  0
    0.5678    1.9393    0.0000 O   0  0  0  0  0  0  0  0  0  0  0  0
    0.5678    1.1143    0.0000 C   0  0  0  0  0  0  0  0  0  0  0  0
    1.2352    0.6294    0.0000 C   0  0  0  0  0  0  0  0  0  0  0  0
    0.9803   -0.1553    0.0000 C   0  0  0  0  0  0  0  0  0  0  0  0
    0.1553   -0.1553    0.0000 C   0  0  0  0  0  0  0  0  0  0  0  0
   -0.0997    0.6294    0.0000 O   0  0  0  0  0  0  0  0  0  0  0  0
   -0.3297   -0.8227    0.0000 C   0  0  0  0  0  0  0  0  0  0  0  0
    0.0059   -1.5764    0.0000 O   0  0  0  0  0  0  0  0  0  0  0  0
   -1.1501   -0.7365    0.0000 O   0  0  0  0  0  0  0  0  0  0  0  0
  1  2  1  0  0  0  0
  2  3  1  0  0  0  0
  3  4  2  0  0  0  0
  4  5  1  0  0  0  0
  5  6  2  0  0  0  0
  6  7  1  0  0  0  0
  3  7  1  0  0  0  0
  6  8  1  0  0  0  0
  8  9  2  0  0  0  0
  8 10  1  0  0  0  0
M  END
>  <Catalog ID>
Z228584394

>  <PlateID>
1198308-R-SPFL-14

>  <Well>
F10

>  <MW (desalted)>
142.109

>  <ClogP>
1.199

>  <HBD>
1

>  <TPSA>
59.670

>  <RotBonds>
2

$$$$

            

 11 11  0  0  0  0            999 V2000
    0.0000    0.0000    0.0000 Cl  0  0  0  0  0  0  0  0  0  0  0  0
    1.7679   -0.3814    0.0000 F   0  0  0  0  0  0  0  0  0  0  0  0
    2.5803   -0.2381    0.0000 C   0  0  0  0  0  0  0  0  0  0  0  0
    2.8625   -1.0134    0.0000 F   0  0  0  0  0  0  0  0  0  0  0  0
    2.5803    0.5869    0.0000 C   0  0  0  0  0  0  0  0  0  0  0  0
    3.2948    0.1744    0.0000 C   0  0  0  0  0  0  0  0  0  0  0  0
    3.7073    0.8888    0.0000 C   0  0  0  0  0  0  0  0  0  0  0  0
    4.5323    0.8888    0.0000 C   0  0  0  0  0  0  0  0  0  0  0  0
    4.9448    0.1744    0.0000 C   0  0  0  0  0  0  0  0  0  0  0  0
    4.5323   -0.5401    0.0000 N   0  0  0  0  0  0  0  0  0  0  0  0
    3.7073   -0.5401    0.0000 C   0  0  0  0  0  0  0  0  0  0  0  0
  2  3  1  0  0  0  0
  3  4  1  0  0  0  0
  3  5  1  0  0  0  0
  5  6  1  0  0  0  0
  3  6  1  0  0  0  0
  6  7  1  0  0  0  0
  7  8  1  0  0  0  0
  8  9  1  0  0  0  0
  9 10  1  0  0  0  0
 10 11  1  0  0  0  0
  6 11  1  0  0  0  0
M  END
>  <Catalog ID>
Z2489675657

>  <PlateID>
1198308-R-SPFL-14

>  <Well>
F11

>  <MW (desalted)>
147.166

>  <ClogP>
0.635

>  <HBD>
1

>  <TPSA>
12.030

>  <RotBonds>
0

$$$$

            

 12 11  0  0  0  0            999 V2000
    0.0000    0.0000    0.0000 Cl  0  0  0  0  0  0  0  0  0  0  0  0
    2.0036    0.0000    0.0000 Cl  0  0  0  0  0  0  0  0  0  0  0  0
    1.7843   -1.6500    0.0000 C   0  0  0  0  0  0  0  0  0  0  0  0
    1.0698   -2.0625    0.0000 C   0  0  0  0  0  0  0  0  0  0  0  0
    1.0698   -2.8875    0.0000 C   0  0  0  0  0  0  0  0  0  0  0  0
    0.3553   -3.3000    0.0000 N   0  0  0  0  0  0  0  0  0  0  0  0
   -0.3591   -2.8875    0.0000 C   0  0  0  0  0  0  0  0  0  0  0  0
   -1.1438   -3.1424    0.0000 C   0  0  0  0  0  0  0  0  0  0  0  0
   -1.6287   -2.4750    0.0000 C   0  0  0  0  0  0  0  0  0  0  0  0
   -1.1438   -1.8076    0.0000 N   0  0  0  0  0  0  0  0  0  0  0  0
   -0.3591   -2.0625    0.0000 C   0  0  0  0  0  0  0  0  0  0  0  0
    0.3553   -1.6500    0.0000 C   0  0  0  0  0  0  0  0  0  0  0  0
  3  4  1  0  0  0  0
  4  5  2  0  0  0  0
  5  6  1  0  0  0  0
  6  7  2  0  0  0  0
  7  8  1  0  0  0  0
  8  9  1  0  0  0  0
  9 10  1  0  0  0  0
 10 11  1  0  0  0  0
  7 11  1  0  0  0  0
 11 12  2  0  0  0  0
  4 12  1  0  0  0  0
M  END
>  <Catalog ID>
Z2418414292

>  <PlateID>
1198308-R-SPFL-14

>  <Well>
G02

>  <MW (desalted)>
134.178

>  <ClogP>
1.750

>  <HBD>
1

>  <TPSA>
24.920

>  <RotBonds>
0

$$$$

            

 13 14  0  0  0  0            999 V2000
   -0.1712   -0.6979    0.0000 C   0  0  0  0  0  0  0  0  0  0  0  0
    0.6538   -0.6979    0.0000 C   0  0  0  0  0  0  0  0  0  0  0  0
    1.1387   -0.0305    0.0000 N   0  0  0  0  0  0  0  0  0  0  0  0
    1.9233   -0.2854    0.0000 C   0  0  0  0  0  0  0  0  0  0  0  0
    2.6378    0.1271    0.0000 C   0  0  0  0  0  0  0  0  0  0  0  0
    3.3523   -0.2854    0.0000 C   0  0  0  0  0  0  0  0  0  0  0  0
    3.3523   -1.1104    0.0000 C   0  0  0  0  0  0  0  0  0  0  0  0
    2.6378   -1.5229    0.0000 C   0  0  0  0  0  0  0  0  0  0  0  0
    1.9233   -1.1104    0.0000 C   0  0  0  0  0  0  0  0  0  0  0  0
    1.1387   -1.3654    0.0000 N   0  0  0  0  0  0  0  0  0  0  0  0
    0.8838   -2.1500    0.0000 C   0  0  0  0  0  0  0  0  0  0  0  0
    1.4358   -2.7631    0.0000 C   0  0  0  0  0  0  0  0  0  0  0  0
    1.9878   -3.3762    0.0000 N   0  0  0  0  0  0  0  0  0  0  0  0
  1  2  1  0  0  0  0
  2  3  2  0  0  0  0
  3  4  1  0  0  0  0
  4  5  2  0  0  0  0
  5  6  1  0  0  0  0
  6  7  2  0  0  0  0
  7  8  1  0  0  0  0
  8  9  2  0  0  0  0
  4  9  1  0  0  0  0
  9 10  1  0  0  0  0
  2 10  1  0  0  0  0
 10 11  1  0  0  0  0
 11 12  1  0  0  0  0
 12 13  3  0  0  0  0
M  END
>  <Catalog ID>
Z53833322

>  <PlateID>
1198308-R-SPFL-14

>  <Well>
G03

>  <MW (desalted)>
171.199

>  <ClogP>
0.988

>  <HBD>
0

>  <TPSA>
41.610

>  <RotBonds>
1

$$$$

            

 11 12  0  0  0  0            999 V2000
    1.2564   -0.1802    0.0000 C   0  0  0  0  0  0  0  0  0  0  0  0
    1.2564   -1.0052    0.0000 C   0  0  0  0  0  0  0  0  0  0  0  0
    1.9239   -1.4901    0.0000 C   0  0  0  0  0  0  0  0  0  0  0  0
    1.6689   -2.2748    0.0000 C   0  0  0  0  0  0  0  0  0  0  0  0
    0.8439   -2.2748    0.0000 C   0  0  0  0  0  0  0  0  0  0  0  0
    0.5890   -1.4901    0.0000 O   0  0  0  0  0  0  0  0  0  0  0  0
    0.3590   -2.9422    0.0000 C   0  0  0  0  0  0  0  0  0  0  0  0
    0.6139   -3.7268    0.0000 C   0  0  0  0  0  0  0  0  0  0  0  0
   -0.0535   -4.2117    0.0000 C   0  0  0  0  0  0  0  0  0  0  0  0
   -0.7209   -3.7268    0.0000 C   0  0  0  0  0  0  0  0  0  0  0  0
   -0.4660   -2.9422    0.0000 N   0  0  0  0  0  0  0  0  0  0  0  0
  1  2  1  0  0  0  0
  2  3  2  0  0  0  0
  3  4  1  0  0  0  0
  4  5  2  0  0  0  0
  5  6  1  0  0  0  0
  2  6  1  0  0  0  0
  5  7  1  0  0  0  0
  7  8  1  0  0  0  0
  8  9  1  0  0  0  0
  9 10  1  0  0  0  0
 10 11  1  0  0  0  0
  7 11  1  0  0  0  0
M  END
>  <Catalog ID>
Z1198169089

>  <PlateID>
1198308-R-SPFL-14

>  <Well>
G04

>  <MW (desalted)>
151.206

>  <ClogP>
1.609

>  <HBD>
1

>  <TPSA>
25.170

>  <RotBonds>
1

$$$$

            

 11 12  0  0  0  0            999 V2000
    3.2789    2.0625    0.0000 C   0  0  0  0  0  0  0  0  0  0  0  0
    3.2789    1.2375    0.0000 C   0  0  0  0  0  0  0  0  0  0  0  0
    3.9934    0.8250    0.0000 C   0  0  0  0  0  0  0  0  0  0  0  0
    3.9934    0.0000    0.0000 C   0  0  0  0  0  0  0  0  0  0  0  0
    3.2789   -0.4125    0.0000 C   0  0  0  0  0  0  0  0  0  0  0  0
    2.5645    0.0000    0.0000 C   0  0  0  0  0  0  0  0  0  0  0  0
    1.7798   -0.2549    0.0000 C   0  0  0  0  0  0  0  0  0  0  0  0
    1.2949    0.4125    0.0000 C   0  0  0  0  0  0  0  0  0  0  0  0
    0.4699    0.4125    0.0000 O   0  0  0  0  0  0  0  0  0  0  0  0
    1.7798    1.0799    0.0000 N   0  0  0  0  0  0  0  0  0  0  0  0
    2.5645    0.8250    0.0000 C   0  0  0  0  0  0  0  0  0  0  0  0
  1  2  1  0  0  0  0
  2  3  2  0  0  0  0
  3  4  1  0  0  0  0
  4  5  2  0  0  0  0
  5  6  1  0  0  0  0
  6  7  1  0  0  0  0
  7  8  1  0  0  0  0
  8  9  2  0  0  0  0
  8 10  1  0  0  0  0
 10 11  1  0  0  0  0
  6 11  2  0  0  0  0
  2 11  1  0  0  0  0
M  END
>  <Catalog ID>
Z1198159857

>  <PlateID>
1198308-R-SPFL-14

>  <Well>
G05

>  <MW (desalted)>
147.174

>  <ClogP>
1.206

>  <HBD>
1

>  <TPSA>
29.100

>  <RotBonds>
0

$$$$

            

 12 13  0  0  0  0            999 V2000
    0.7145   -0.4125    0.0000 N   0  0  0  0  0  0  0  0  0  0  0  0
    0.7145   -1.2375    0.0000 C   0  0  0  0  0  0  0  0  0  0  0  0
    1.3819   -1.7224    0.0000 N   0  0  0  0  0  0  0  0  0  0  0  0
    1.1270   -2.5070    0.0000 N   0  0  0  0  0  0  0  0  0  0  0  0
    0.3020   -2.5070    0.0000 C   0  0  0  0  0  0  0  0  0  0  0  0
    0.0470   -1.7224    0.0000 S   0  0  0  0  0  0  0  0  0  0  0  0
   -0.1830   -3.1745    0.0000 C   0  0  0  0  0  0  0  0  0  0  0  0
    0.1526   -3.9282    0.0000 C   0  0  0  0  0  0  0  0  0  0  0  0
   -0.3323   -4.5956    0.0000 C   0  0  0  0  0  0  0  0  0  0  0  0
   -1.1528   -4.5094    0.0000 C   0  0  0  0  0  0  0  0  0  0  0  0
   -1.4884   -3.7557    0.0000 C   0  0  0  0  0  0  0  0  0  0  0  0
   -1.0034   -3.0882    0.0000 C   0  0  0  0  0  0  0  0  0  0  0  0
  1  2  1  0  0  0  0
  2  3  2  0  0  0  0
  3  4  1  0  0  0  0
  4  5  2  0  0  0  0
  5  6  1  0  0  0  0
  2  6  1  0  0  0  0
  5  7  1  0  0  0  0
  7  8  1  0  0  0  0
  8  9  1  0  0  0  0
  9 10  1  0  0  0  0
 10 11  1  0  0  0  0
 11 12  1  0  0  0  0
  7 12  1  0  0  0  0
M  END
>  <Catalog ID>
Z154666166

>  <PlateID>
1198308-R-SPFL-14

>  <Well>
G06

>  <MW (desalted)>
183.274

>  <ClogP>
2.164

>  <HBD>
1

>  <TPSA>
51.800

>  <RotBonds>
1

$$$$

            

 13 14  0  0  0  0            999 V2000
    2.0367   -0.4741    0.0000 C   0  0  0  0  0  0  0  0  0  0  0  0
    2.0367   -1.2991    0.0000 N   0  0  0  0  0  0  0  0  0  0  0  0
    2.7041   -1.7840    0.0000 C   0  0  0  0  0  0  0  0  0  0  0  0
    2.4492   -2.5687    0.0000 C   0  0  0  0  0  0  0  0  0  0  0  0
    1.6242   -2.5687    0.0000 N   0  0  0  0  0  0  0  0  0  0  0  0
    1.3693   -1.7840    0.0000 C   0  0  0  0  0  0  0  0  0  0  0  0
    0.5846   -1.5291    0.0000 C   0  0  0  0  0  0  0  0  0  0  0  0
    0.4131   -0.7221    0.0000 C   0  0  0  0  0  0  0  0  0  0  0  0
   -0.3715   -0.4672    0.0000 C   0  0  0  0  0  0  0  0  0  0  0  0
   -0.5430    0.3398    0.0000 C   0  0  0  0  0  0  0  0  0  0  0  0
    0.0701    0.8918    0.0000 N   0  0  0  0  0  0  0  0  0  0  0  0
    0.8547    0.6369    0.0000 C   0  0  0  0  0  0  0  0  0  0  0  0
    1.0262   -0.1701    0.0000 C   0  0  0  0  0  0  0  0  0  0  0  0
  1  2  1  0  0  0  0
  2  3  1  0  0  0  0
  3  4  2  0  0  0  0
  4  5  1  0  0  0  0
  5  6  2  0  0  0  0
  2  6  1  0  0  0  0
  6  7  1  0  0  0  0
  7  8  1  0  0  0  0
  8  9  1  0  0  0  0
  9 10  1  0  0  0  0
 10 11  1  0  0  0  0
 11 12  1  0  0  0  0
 12 13  1  0  0  0  0
  8 13  1  0  0  0  0
M  END
>  <Catalog ID>
Z1138834280

>  <PlateID>
1198308-R-SPFL-14

>  <Well>
G07

>  <MW (desalted)>
179.262

>  <ClogP>
0.487

>  <HBD>
1

>  <TPSA>
29.850

>  <RotBonds>
2

$$$$

            

 13 12  0  0  0  0            999 V2000
    0.0000    0.0000    0.0000 Cl  0  0  0  0  0  0  0  0  0  0  0  0
    2.0036    0.0000    0.0000 Cl  0  0  0  0  0  0  0  0  0  0  0  0
   -2.2204   -3.1895    0.0000 N   0  0  0  0  0  0  0  0  0  0  0  0
   -1.8079   -2.4750    0.0000 C   0  0  0  0  0  0  0  0  0  0  0  0
   -0.9829   -2.4750    0.0000 C   0  0  0  0  0  0  0  0  0  0  0  0
   -0.4979   -1.8076    0.0000 C   0  0  0  0  0  0  0  0  0  0  0  0
    0.2867   -2.0625    0.0000 C   0  0  0  0  0  0  0  0  0  0  0  0
    1.0012   -1.6500    0.0000 C   0  0  0  0  0  0  0  0  0  0  0  0
    1.7156   -2.0625    0.0000 C   0  0  0  0  0  0  0  0  0  0  0  0
    1.7156   -2.8875    0.0000 C   0  0  0  0  0  0  0  0  0  0  0  0
    1.0012   -3.3000    0.0000 C   0  0  0  0  0  0  0  0  0  0  0  0
    0.2867   -2.8875    0.0000 N   0  0  0  0  0  0  0  0  0  0  0  0
   -0.4979   -3.1424    0.0000 N   0  0  0  0  0  0  0  0  0  0  0  0
  3  4  1  0  0  0  0
  4  5  1  0  0  0  0
  5  6  1  0  0  0  0
  6  7  2  0  0  0  0
  7  8  1  0  0  0  0
  8  9  1  0  0  0  0
  9 10  1  0  0  0  0
 10 11  1  0  0  0  0
 11 12  1  0  0  0  0
  7 12  1  0  0  0  0
 12 13  1  0  0  0  0
  5 13  2  0  0  0  0
M  END
>  <Catalog ID>
Z2471157123

>  <PlateID>
1198308-R-SPFL-14

>  <Well>
G08

>  <MW (desalted)>
151.209

>  <ClogP>
0.052

>  <HBD>
1

>  <TPSA>
43.840

>  <RotBonds>
1

$$$$

            

 15 15  0  0  0  0            999 V2000
    0.0000    0.0000    0.0000 Cl  0  0  0  0  0  0  0  0  0  0  0  0
    5.5401    0.1760    0.0000 C   0  0  0  0  0  0  0  0  0  0  0  0
    4.8256   -0.2365    0.0000 C   0  0  0  0  0  0  0  0  0  0  0  0
    4.8256   -1.0615    0.0000 C   0  0  0  0  0  0  0  0  0  0  0  0
    4.1112   -1.4740    0.0000 C   0  0  0  0  0  0  0  0  0  0  0  0
    3.3967   -1.0615    0.0000 C   0  0  0  0  0  0  0  0  0  0  0  0
    2.6121   -1.3164    0.0000 N   0  0  0  0  0  0  0  0  0  0  0  0
    2.1272   -0.6490    0.0000 C   0  0  0  0  0  0  0  0  0  0  0  0
    2.6121    0.0185    0.0000 N   0  0  0  0  0  0  0  0  0  0  0  0
    2.3571    0.8031    0.0000 C   0  0  0  0  0  0  0  0  0  0  0  0
    2.9092    1.4162    0.0000 C   0  0  0  0  0  0  0  0  0  0  0  0
    2.6542    2.2008    0.0000 O   0  0  0  0  0  0  0  0  0  0  0  0
    3.7161    1.2447    0.0000 O   0  0  0  0  0  0  0  0  0  0  0  0
    3.3967   -0.2365    0.0000 C   0  0  0  0  0  0  0  0  0  0  0  0
    4.1112    0.1760    0.0000 C   0  0  0  0  0  0  0  0  0  0  0  0
  2  3  1  0  0  0  0
  3  4  2  0  0  0  0
  4  5  1  0  0  0  0
  5  6  2  0  0  0  0
  6  7  1  0  0  0  0
  7  8  2  0  0  0  0
  8  9  1  0  0  0  0
  9 10  1  0  0  0  0
 10 11  1  0  0  0  0
 11 12  2  0  0  0  0
 11 13  1  0  0  0  0
  9 14  1  0  0  0  0
  6 14  1  0  0  0  0
 14 15  2  0  0  0  0
  3 15  1  0  0  0  0
M  END
>  <Catalog ID>
Z1945984220

>  <PlateID>
1198308-R-SPFL-14

>  <Well>
G09

>  <MW (desalted)>
190.199

>  <ClogP>
1.462

>  <HBD>
1

>  <TPSA>
55.120

>  <RotBonds>
2

$$$$

            

 15 15  0  0  0  0            999 V2000
    0.0000    0.0000    0.0000 Cl  0  0  0  0  0  0  0  0  0  0  0  0
    4.9524    2.7384    0.0000 N   0  0  0  0  0  0  0  0  0  0  0  0
    4.2379    2.3259    0.0000 C   0  0  0  0  0  0  0  0  0  0  0  0
    4.2379    1.5009    0.0000 C   0  0  0  0  0  0  0  0  0  0  0  0
    4.9053    1.0160    0.0000 N   0  0  0  0  0  0  0  0  0  0  0  0
    4.6504    0.2313    0.0000 N   0  0  0  0  0  0  0  0  0  0  0  0
    3.8254    0.2313    0.0000 C   0  0  0  0  0  0  0  0  0  0  0  0
    3.5705    1.0160    0.0000 O   0  0  0  0  0  0  0  0  0  0  0  0
    3.3405   -0.4361    0.0000 C   0  0  0  0  0  0  0  0  0  0  0  0
    3.6760   -1.1898    0.0000 C   0  0  0  0  0  0  0  0  0  0  0  0
    3.1911   -1.8572    0.0000 C   0  0  0  0  0  0  0  0  0  0  0  0
    2.3706   -1.7710    0.0000 C   0  0  0  0  0  0  0  0  0  0  0  0
    1.8857   -2.4384    0.0000 Cl  0  0  0  0  0  0  0  0  0  0  0  0
    2.0351   -1.0173    0.0000 C   0  0  0  0  0  0  0  0  0  0  0  0
    2.5200   -0.3499    0.0000 C   0  0  0  0  0  0  0  0  0  0  0  0
  2  3  1  0  0  0  0
  3  4  1  0  0  0  0
  4  5  2  0  0  0  0
  5  6  1  0  0  0  0
  6  7  2  0  0  0  0
  7  8  1  0  0  0  0
  4  8  1  0  0  0  0
  7  9  1  0  0  0  0
  9 10  2  0  0  0  0
 10 11  1  0  0  0  0
 11 12  2  0  0  0  0
 12 13  1  0  0  0  0
 12 14  1  0  0  0  0
 14 15  2  0  0  0  0
  9 15  1  0  0  0  0
M  END
>  <Catalog ID>
Z1268152402

>  <PlateID>
1198308-R-SPFL-14

>  <Well>
G10

>  <MW (desalted)>
209.632

>  <ClogP>
0.387

>  <HBD>
1

>  <TPSA>
64.940

>  <RotBonds>
2

$$$$

            

 12 13  0  0  0  0            999 V2000
    4.1570    1.1270    0.0000 O   0  0  0  0  0  0  0  0  0  0  0  0
    3.7445    0.4125    0.0000 C   0  0  0  0  0  0  0  0  0  0  0  0
    2.9195    0.4125    0.0000 C   0  0  0  0  0  0  0  0  0  0  0  0
    2.5070   -0.3020    0.0000 C   0  0  0  0  0  0  0  0  0  0  0  0
    1.6820   -0.3020    0.0000 C   0  0  0  0  0  0  0  0  0  0  0  0
    1.2695    0.4125    0.0000 C   0  0  0  0  0  0  0  0  0  0  0  0
    0.7846   -0.2549    0.0000 C   0  0  0  0  0  0  0  0  0  0  0  0
    0.0000   -0.0000    0.0000 C   0  0  0  0  0  0  0  0  0  0  0  0
   -0.0000    0.8250    0.0000 C   0  0  0  0  0  0  0  0  0  0  0  0
    0.7846    1.0799    0.0000 C   0  0  0  0  0  0  0  0  0  0  0  0
    1.6820    1.1270    0.0000 C   0  0  0  0  0  0  0  0  0  0  0  0
    2.5070    1.1270    0.0000 N   0  0  0  0  0  0  0  0  0  0  0  0
  1  2  1  0  0  0  0
  2  3  1  0  0  0  0
  3  4  1  0  0  0  0
  4  5  1  0  0  0  0
  5  6  1  0  0  0  0
  6  7  1  0  0  0  0
  7  8  1  0  0  0  0
  8  9  1  0  0  0  0
  9 10  1  0  0  0  0
  6 10  1  0  0  0  0
  6 11  1  0  0  0  0
 11 12  1  0  0  0  0
  3 12  1  0  0  0  0
M  END
>  <Catalog ID>
Z1262613409

>  <PlateID>
1198308-R-SPFL-14

>  <Well>
G11

>  <MW (desalted)>
169.264

>  <ClogP>
1.683

>  <HBD>
2

>  <TPSA>
32.260

>  <RotBonds>
1

$$$$

            

 12 12  0  0  0  0            999 V2000
    0.0000    0.0000    0.0000 Cl  0  0  0  0  0  0  0  0  0  0  0  0
    3.7861    1.4815    0.0000 C   0  0  0  0  0  0  0  0  0  0  0  0
    3.7861    0.6565    0.0000 C   0  0  0  0  0  0  0  0  0  0  0  0
    3.0716    0.2440    0.0000 C   0  0  0  0  0  0  0  0  0  0  0  0
    2.3571    0.6565    0.0000 C   0  0  0  0  0  0  0  0  0  0  0  0
    2.3571    1.4815    0.0000 C   0  0  0  0  0  0  0  0  0  0  0  0
    3.0716    1.8940    0.0000 N   0  0  0  0  0  0  0  0  0  0  0  0
    3.0716   -0.5810    0.0000 C   0  0  0  0  0  0  0  0  0  0  0  0
    3.7391   -1.0659    0.0000 C   0  0  0  0  0  0  0  0  0  0  0  0
    3.4841   -1.8506    0.0000 C   0  0  0  0  0  0  0  0  0  0  0  0
    2.6591   -1.8506    0.0000 O   0  0  0  0  0  0  0  0  0  0  0  0
    2.4042   -1.0659    0.0000 N   0  0  0  0  0  0  0  0  0  0  0  0
  2  3  1  0  0  0  0
  3  4  1  0  0  0  0
  4  5  1  0  0  0  0
  5  6  1  0  0  0  0
  6  7  1  0  0  0  0
  2  7  1  0  0  0  0
  4  8  1  0  0  0  0
  8  9  1  0  0  0  0
  9 10  2  0  0  0  0
 10 11  1  0  0  0  0
 11 12  1  0  0  0  0
  8 12  2  0  0  0  0
M  END
>  <Catalog ID>
Z2524930972

>  <PlateID>
1198308-R-SPFL-14

>  <Well>
H02

>  <MW (desalted)>
152.194

>  <ClogP>
0.092

>  <HBD>
1

>  <TPSA>
38.060

>  <RotBonds>
1

$$$$

            

 14 15  0  0  0  0            999 V2000
    2.7845    0.6979    0.0000 C   0  0  0  0  0  0  0  0  0  0  0  0
    2.0701    1.1104    0.0000 C   0  0  0  0  0  0  0  0  0  0  0  0
    1.3556    0.6979    0.0000 C   0  0  0  0  0  0  0  0  0  0  0  0
    0.6411    1.1104    0.0000 C   0  0  0  0  0  0  0  0  0  0  0  0
   -0.1435    0.8555    0.0000 N   0  0  0  0  0  0  0  0  0  0  0  0
   -0.3984    0.0709    0.0000 C   0  0  0  0  0  0  0  0  0  0  0  0
   -0.6284    1.5229    0.0000 N   0  0  0  0  0  0  0  0  0  0  0  0
   -0.1435    2.1904    0.0000 C   0  0  0  0  0  0  0  0  0  0  0  0
   -0.3984    2.9750    0.0000 N   0  0  0  0  0  0  0  0  0  0  0  0
    0.6411    1.9354    0.0000 C   0  0  0  0  0  0  0  0  0  0  0  0
    1.3556    2.3479    0.0000 C   0  0  0  0  0  0  0  0  0  0  0  0
    1.3556    3.1729    0.0000 O   0  0  0  0  0  0  0  0  0  0  0  0
    2.0701    1.9354    0.0000 N   0  0  0  0  0  0  0  0  0  0  0  0
    2.7845    2.3479    0.0000 C   0  0  0  0  0  0  0  0  0  0  0  0
  1  2  1  0  0  0  0
  2  3  2  0  0  0  0
  3  4  1  0  0  0  0
  4  5  1  0  0  0  0
  5  6  1  0  0  0  0
  5  7  1  0  0  0  0
  7  8  2  0  0  0  0
  8  9  1  0  0  0  0
  8 10  1  0  0  0  0
  4 10  2  0  0  0  0
 10 11  1  0  0  0  0
 11 12  2  0  0  0  0
 11 13  1  0  0  0  0
  2 13  1  0  0  0  0
 13 14  1  0  0  0  0
M  END
>  <Catalog ID>
Z1198273298

>  <PlateID>
1198308-R-SPFL-14

>  <Well>
H03

>  <MW (desalted)>
192.218

>  <ClogP>
-0.568

>  <HBD>
1

>  <TPSA>
64.150

>  <RotBonds>
0

$$$$

            

 12 12  0  0  0  0            999 V2000
    0.0000    0.0000    0.0000 Cl  0  0  0  0  0  0  0  0  0  0  0  0
    1.7679    1.5621    0.0000 F   0  0  0  0  0  0  0  0  0  0  0  0
    2.4823    1.1496    0.0000 C   0  0  0  0  0  0  0  0  0  0  0  0
    3.1968    1.5621    0.0000 C   0  0  0  0  0  0  0  0  0  0  0  0
    3.9113    1.1496    0.0000 C   0  0  0  0  0  0  0  0  0  0  0  0
    3.9113    0.3246    0.0000 C   0  0  0  0  0  0  0  0  0  0  0  0
    3.1968   -0.0879    0.0000 C   0  0  0  0  0  0  0  0  0  0  0  0
    2.4823    0.3246    0.0000 C   0  0  0  0  0  0  0  0  0  0  0  0
    3.1968   -0.9129    0.0000 C   0  0  0  0  0  0  0  0  0  0  0  0
    3.7802   -1.4962    0.0000 C   0  0  0  0  0  0  0  0  0  0  0  0
    3.1968   -2.0796    0.0000 C   0  0  0  0  0  0  0  0  0  0  0  0
    2.6134   -1.4962    0.0000 N   0  0  0  0  0  0  0  0  0  0  0  0
  2  3  1  0  0  0  0
  3  4  2  0  0  0  0
  4  5  1  0  0  0  0
  5  6  2  0  0  0  0
  6  7  1  0  0  0  0
  7  8  2  0  0  0  0
  3  8  1  0  0  0  0
  7  9  1  0  0  0  0
  9 10  1  0  0  0  0
 10 11  1  0  0  0  0
 11 12  1  0  0  0  0
  9 12  1  0  0  0  0
M  END
>  <Catalog ID>
Z1696844460

>  <PlateID>
1198308-R-SPFL-14

>  <Well>
H04

>  <MW (desalted)>
151.181

>  <ClogP>
1.518

>  <HBD>
1

>  <TPSA>
12.030

>  <RotBonds>
1

$$$$

            

 13 14  0  0  0  0            999 V2000
    1.4289   -0.0000    0.0000 O   0  0  0  0  0  0  0  0  0  0  0  0
    0.7145   -0.4125    0.0000 C   0  0  0  0  0  0  0  0  0  0  0  0
    0.7145   -1.2375    0.0000 C   0  0  0  0  0  0  0  0  0  0  0  0
    1.3819   -1.7224    0.0000 C   0  0  0  0  0  0  0  0  0  0  0  0
    1.1270   -2.5070    0.0000 C   0  0  0  0  0  0  0  0  0  0  0  0
    0.3020   -2.5070    0.0000 N   0  0  0  0  0  0  0  0  0  0  0  0
    0.0470   -1.7224    0.0000 C   0  0  0  0  0  0  0  0  0  0  0  0
   -0.1830   -3.1745    0.0000 C   0  0  0  0  0  0  0  0  0  0  0  0
    0.1526   -3.9282    0.0000 C   0  0  0  0  0  0  0  0  0  0  0  0
   -0.3323   -4.5956    0.0000 C   0  0  0  0  0  0  0  0  0  0  0  0
   -1.1528   -4.5094    0.0000 C   0  0  0  0  0  0  0  0  0  0  0  0
   -1.4884   -3.7557    0.0000 C   0  0  0  0  0  0  0  0  0  0  0  0
   -1.0034   -3.0882    0.0000 C   0  0  0  0  0  0  0  0  0  0  0  0
  1  2  1  0  0  0  0
  2  3  1  0  0  0  0
  3  4  1  0  0  0  0
  4  5  1  0  0  0  0
  5  6  1  0  0  0  0
  6  7  1  0  0  0  0
  3  7  1  0  0  0  0
  6  8  1  0  0  0  0
  8  9  2  0  0  0  0
  9 10  1  0  0  0  0
 10 11  2  0  0  0  0
 11 12  1  0  0  0  0
 12 13  2  0  0  0  0
  8 13  1  0  0  0  0
M  END
>  <Catalog ID>
Z1198175602

>  <PlateID>
1198308-R-SPFL-14

>  <Well>
H05

>  <MW (desalted)>
177.243

>  <ClogP>
0.953

>  <HBD>
1

>  <TPSA>
23.470

>  <RotBonds>
2

$$$$

            

 11 12  0  0  0  0            999 V2000
   -0.1712   -0.6979    0.0000 N   0  0  0  0  0  0  0  0  0  0  0  0
    0.6538   -0.6979    0.0000 C   0  0  0  0  0  0  0  0  0  0  0  0
    1.1387   -0.0305    0.0000 N   0  0  0  0  0  0  0  0  0  0  0  0
    1.9233   -0.2854    0.0000 C   0  0  0  0  0  0  0  0  0  0  0  0
    2.6378    0.1271    0.0000 C   0  0  0  0  0  0  0  0  0  0  0  0
    3.3523   -0.2854    0.0000 C   0  0  0  0  0  0  0  0  0  0  0  0
    3.3523   -1.1104    0.0000 C   0  0  0  0  0  0  0  0  0  0  0  0
    4.0668   -1.5229    0.0000 F   0  0  0  0  0  0  0  0  0  0  0  0
    2.6378   -1.5229    0.0000 C   0  0  0  0  0  0  0  0  0  0  0  0
    1.9233   -1.1104    0.0000 N   0  0  0  0  0  0  0  0  0  0  0  0
    1.1387   -1.3654    0.0000 N   0  0  0  0  0  0  0  0  0  0  0  0
  1  2  1  0  0  0  0
  2  3  1  0  0  0  0
  3  4  2  0  0  0  0
  4  5  1  0  0  0  0
  5  6  2  0  0  0  0
  6  7  1  0  0  0  0
  7  8  1  0  0  0  0
  7  9  2  0  0  0  0
  9 10  1  0  0  0  0
  4 10  1  0  0  0  0
 10 11  1  0  0  0  0
  2 11  2  0  0  0  0
M  END
>  <Catalog ID>
Z1217131092

>  <PlateID>
1198308-R-SPFL-14

>  <Well>
H06

>  <MW (desalted)>
152.129

>  <ClogP>
0.355

>  <HBD>
1

>  <TPSA>
56.210

>  <RotBonds>
0

$$$$

            

 11 12  0  0  0  0            999 V2000
   -0.5837   -1.4124    0.0000 O   0  0  0  0  0  0  0  0  0  0  0  0
   -0.1712   -0.6979    0.0000 C   0  0  0  0  0  0  0  0  0  0  0  0
    0.6538   -0.6979    0.0000 C   0  0  0  0  0  0  0  0  0  0  0  0
    1.1387   -0.0305    0.0000 C   0  0  0  0  0  0  0  0  0  0  0  0
    1.9233   -0.2854    0.0000 C   0  0  0  0  0  0  0  0  0  0  0  0
    2.6378    0.1271    0.0000 C   0  0  0  0  0  0  0  0  0  0  0  0
    3.3523   -0.2854    0.0000 C   0  0  0  0  0  0  0  0  0  0  0  0
    3.3523   -1.1104    0.0000 C   0  0  0  0  0  0  0  0  0  0  0  0
    2.6378   -1.5229    0.0000 C   0  0  0  0  0  0  0  0  0  0  0  0
    1.9233   -1.1104    0.0000 C   0  0  0  0  0  0  0  0  0  0  0  0
    1.1387   -1.3654    0.0000 O   0  0  0  0  0  0  0  0  0  0  0  0
  1  2  1  0  0  0  0
  2  3  1  0  0  0  0
  3  4  1  0  0  0  0
  4  5  1  0  0  0  0
  5  6  2  0  0  0  0
  6  7  1  0  0  0  0
  7  8  2  0  0  0  0
  8  9  1  0  0  0  0
  9 10  2  0  0  0  0
  5 10  1  0  0  0  0
 10 11  1  0  0  0  0
  3 11  1  0  0  0  0
M  END
>  <Catalog ID>
Z397587206

>  <PlateID>
1198308-R-SPFL-14

>  <Well>
H07

>  <MW (desalted)>
150.175

>  <ClogP>
1.246

>  <HBD>
1

>  <TPSA>
29.460

>  <RotBonds>
1

$$$$

            

 12 12  0  0  0  0            999 V2000
    1.2822    2.3518    0.0000 O   0  0  0  0  0  0  0  0  0  0  0  0
    0.5678    1.9393    0.0000 C   0  0  0  0  0  0  0  0  0  0  0  0
    0.5678    1.1143    0.0000 C   0  0  0  0  0  0  0  0  0  0  0  0
    1.2352    0.6294    0.0000 C   0  0  0  0  0  0  0  0  0  0  0  0
    0.9803   -0.1553    0.0000 N   0  0  0  0  0  0  0  0  0  0  0  0
    0.1553   -0.1553    0.0000 C   0  0  0  0  0  0  0  0  0  0  0  0
   -0.0997    0.6294    0.0000 N   0  0  0  0  0  0  0  0  0  0  0  0
   -0.8843    0.8843    0.0000 C   0  0  0  0  0  0  0  0  0  0  0  0
   -1.4974    0.3323    0.0000 C   0  0  0  0  0  0  0  0  0  0  0  0
   -2.1105   -0.2198    0.0000 F   0  0  0  0  0  0  0  0  0  0  0  0
   -2.0494    0.9454    0.0000 F   0  0  0  0  0  0  0  0  0  0  0  0
   -0.9454   -0.2808    0.0000 F   0  0  0  0  0  0  0  0  0  0  0  0
  1  2  1  0  0  0  0
  2  3  1  0  0  0  0
  3  4  2  0  0  0  0
  4  5  1  0  0  0  0
  5  6  2  0  0  0  0
  6  7  1  0  0  0  0
  3  7  1  0  0  0  0
  7  8  1  0  0  0  0
  8  9  1  0  0  0  0
  9 10  1  0  0  0  0
  9 11  1  0  0  0  0
  9 12  1  0  0  0  0
M  END
>  <Catalog ID>
Z1270376875

>  <PlateID>
1198308-R-SPFL-14

>  <Well>
H08

>  <MW (desalted)>
180.128

>  <ClogP>
-0.758

>  <HBD>
1

>  <TPSA>
38.050

>  <RotBonds>
3

$$$$

            

 13 12  0  0  0  0            999 V2000
    0.0000    0.0000    0.0000 Cl  0  0  0  0  0  0  0  0  0  0  0  0
    2.0036    0.0000    0.0000 Cl  0  0  0  0  0  0  0  0  0  0  0  0
   -0.4125   -5.3945    0.0000 C   0  0  0  0  0  0  0  0  0  0  0  0
   -0.6674   -4.6099    0.0000 C   0  0  0  0  0  0  0  0  0  0  0  0
    0.0000   -4.1250    0.0000 C   0  0  0  0  0  0  0  0  0  0  0  0
    0.6674   -4.6099    0.0000 C   0  0  0  0  0  0  0  0  0  0  0  0
    0.4125   -5.3945    0.0000 N   0  0  0  0  0  0  0  0  0  0  0  0
    0.0000   -3.3000    0.0000 C   0  0  0  0  0  0  0  0  0  0  0  0
   -0.7145   -2.8875    0.0000 C   0  0  0  0  0  0  0  0  0  0  0  0
   -0.7145   -2.0625    0.0000 C   0  0  0  0  0  0  0  0  0  0  0  0
   -0.0000   -1.6500    0.0000 N   0  0  0  0  0  0  0  0  0  0  0  0
    0.7145   -2.0625    0.0000 C   0  0  0  0  0  0  0  0  0  0  0  0
    0.7145   -2.8875    0.0000 C   0  0  0  0  0  0  0  0  0  0  0  0
  3  4  1  0  0  0  0
  4  5  1  0  0  0  0
  5  6  1  0  0  0  0
  6  7  1  0  0  0  0
  3  7  1  0  0  0  0
  5  8  1  0  0  0  0
  8  9  2  0  0  0  0
  9 10  1  0  0  0  0
 10 11  2  0  0  0  0
 11 12  1  0  0  0  0
 12 13  2  0  0  0  0
  8 13  1  0  0  0  0
M  END
>  <Catalog ID>
Z2492414323

>  <PlateID>
1198308-R-SPFL-14

>  <Well>
H09

>  <MW (desalted)>
148.205

>  <ClogP>
0.437

>  <HBD>
1

>  <TPSA>
24.920

>  <RotBonds>
1

$$$$

            

 11 11  0  0  0  0            999 V2000
    0.7145    2.0625    0.0000 C   0  0  0  0  0  0  0  0  0  0  0  0
    0.7145    1.2375    0.0000 C   0  0  0  0  0  0  0  0  0  0  0  0
    1.4289    0.8250    0.0000 C   0  0  0  0  0  0  0  0  0  0  0  0
    1.4289   -0.0000    0.0000 C   0  0  0  0  0  0  0  0  0  0  0  0
    0.7145   -0.4125    0.0000 C   0  0  0  0  0  0  0  0  0  0  0  0
    0.0000    0.0000    0.0000 N   0  0  0  0  0  0  0  0  0  0  0  0
   -0.7145   -0.4125    0.0000 C   0  0  0  0  0  0  0  0  0  0  0  0
   -1.4289    0.0000    0.0000 C   0  0  0  0  0  0  0  0  0  0  0  0
   -2.1434   -0.4125    0.0000 O   0  0  0  0  0  0  0  0  0  0  0  0
   -1.4289    0.8250    0.0000 N   0  0  0  0  0  0  0  0  0  0  0  0
    0.0000    0.8250    0.0000 C   0  0  0  0  0  0  0  0  0  0  0  0
  1  2  1  0  0  0  0
  2  3  1  0  0  0  0
  3  4  1  0  0  0  0
  4  5  1  0  0  0  0
  5  6  1  0  0  0  0
  6  7  1  0  0  0  0
  7  8  1  0  0  0  0
  8  9  2  0  0  0  0
  8 10  1  0  0  0  0
  6 11  1  0  0  0  0
  2 11  1  0  0  0  0
M  END
>  <Catalog ID>
Z54749656

>  <PlateID>
1198308-R-SPFL-14

>  <Well>
H10

>  <MW (desalted)>
156.225

>  <ClogP>
0.788

>  <HBD>
1

>  <TPSA>
46.330

>  <RotBonds>
2

$$$$

            

 11 12  0  0  0  0            999 V2000
    4.0668    3.1729    0.0000 O   0  0  0  0  0  0  0  0  0  0  0  0
    4.0668    2.3479    0.0000 C   0  0  0  0  0  0  0  0  0  0  0  0
    3.3523    1.9354    0.0000 C   0  0  0  0  0  0  0  0  0  0  0  0
    3.3523    1.1104    0.0000 C   0  0  0  0  0  0  0  0  0  0  0  0
    2.6378    0.6979    0.0000 C   0  0  0  0  0  0  0  0  0  0  0  0
    1.9233    1.1104    0.0000 C   0  0  0  0  0  0  0  0  0  0  0  0
    1.1387    0.8555    0.0000 O   0  0  0  0  0  0  0  0  0  0  0  0
    0.6538    1.5229    0.0000 N   0  0  0  0  0  0  0  0  0  0  0  0
    1.1387    2.1904    0.0000 C   0  0  0  0  0  0  0  0  0  0  0  0
    1.9233    1.9354    0.0000 C   0  0  0  0  0  0  0  0  0  0  0  0
    2.6378    2.3479    0.0000 C   0  0  0  0  0  0  0  0  0  0  0  0
  1  2  1  0  0  0  0
  2  3  1  0  0  0  0
  3  4  2  0  0  0  0
  4  5  1  0  0  0  0
  5  6  2  0  0  0  0
  6  7  1  0  0  0  0
  7  8  1  0  0  0  0
  8  9  2  0  0  0  0
  9 10  1  0  0  0  0
  6 10  1  0  0  0  0
 10 11  2  0  0  0  0
  3 11  1  0  0  0  0
M  END
>  <Catalog ID>
Z1813198852

>  <PlateID>
1198308-R-SPFL-14

>  <Well>
H11

>  <MW (desalted)>
149.147

>  <ClogP>
0.467

>  <HBD>
1

>  <TPSA>
46.260

>  <RotBonds>
1

$$$$

            

 13 15  0  0  0  0            999 V2000
    0.4125   -0.1709    0.0000 C   0  0  0  0  0  0  0  0  0  0  0  0
   -0.1709    0.4125    0.0000 N   0  0  0  0  0  0  0  0  0  0  0  0
    0.4125    0.9959    0.0000 C   0  0  0  0  0  0  0  0  0  0  0  0
    0.4125    1.8209    0.0000 C   0  0  0  0  0  0  0  0  0  0  0  0
   -0.2549    2.3058    0.0000 C   0  0  0  0  0  0  0  0  0  0  0  0
   -0.0000    3.0904    0.0000 C   0  0  0  0  0  0  0  0  0  0  0  0
    0.8250    3.0904    0.0000 C   0  0  0  0  0  0  0  0  0  0  0  0
    1.0799    2.3058    0.0000 O   0  0  0  0  0  0  0  0  0  0  0  0
    0.9959    0.4125    0.0000 C   0  0  0  0  0  0  0  0  0  0  0  0
    1.4808    1.0799    0.0000 C   0  0  0  0  0  0  0  0  0  0  0  0
    2.2654    0.8250    0.0000 C   0  0  0  0  0  0  0  0  0  0  0  0
    2.2654    0.0000    0.0000 C   0  0  0  0  0  0  0  0  0  0  0  0
    1.4808   -0.2549    0.0000 C   0  0  0  0  0  0  0  0  0  0  0  0
  1  2  1  0  0  0  0
  2  3  1  0  0  0  0
  3  4  1  0  0  0  0
  4  5  2  0  0  0  0
  5  6  1  0  0  0  0
  6  7  2  0  0  0  0
  7  8  1  0  0  0  0
  4  8  1  0  0  0  0
  3  9  1  0  0  0  0
  1  9  1  0  0  0  0
  9 10  1  0  0  0  0
 10 11  1  0  0  0  0
 11 12  1  0  0  0  0
 12 13  1  0  0  0  0
  9 13  1  0  0  0  0
M  END
>  <Catalog ID>
Z2158471417

>  <PlateID>
1198308-R-SPFL-15

>  <Well>
A02

>  <MW (desalted)>
177.243

>  <ClogP>
1.983

>  <HBD>
1

>  <TPSA>
25.170

>  <RotBonds>
1

$$$$

            

 11 12  0  0  0  0            999 V2000
    1.1270   -0.1743    0.0000 N   0  0  0  0  0  0  0  0  0  0  0  0
    1.8414   -0.5868    0.0000 C   0  0  0  0  0  0  0  0  0  0  0  0
    1.8414   -1.4118    0.0000 C   0  0  0  0  0  0  0  0  0  0  0  0
    2.2539   -2.1263    0.0000 C   0  0  0  0  0  0  0  0  0  0  0  0
    1.4289   -2.1263    0.0000 C   0  0  0  0  0  0  0  0  0  0  0  0
    2.5559   -0.1743    0.0000 C   0  0  0  0  0  0  0  0  0  0  0  0
    2.5559    0.6507    0.0000 C   0  0  0  0  0  0  0  0  0  0  0  0
    3.2704    1.0632    0.0000 C   0  0  0  0  0  0  0  0  0  0  0  0
    3.9849    0.6507    0.0000 C   0  0  0  0  0  0  0  0  0  0  0  0
    3.9849   -0.1743    0.0000 C   0  0  0  0  0  0  0  0  0  0  0  0
    3.2704   -0.5868    0.0000 C   0  0  0  0  0  0  0  0  0  0  0  0
  1  2  1  0  0  0  0
  2  3  1  0  0  0  0
  3  4  1  0  0  0  0
  4  5  1  0  0  0  0
  3  5  1  0  0  0  0
  2  6  1  0  0  0  0
  6  7  2  0  0  0  0
  7  8  1  0  0  0  0
  8  9  2  0  0  0  0
  9 10  1  0  0  0  0
 10 11  2  0  0  0  0
  6 11  1  0  0  0  0
M  END
>  <Catalog ID>
Z1891773551

>  <PlateID>
1198308-R-SPFL-15

>  <Well>
A03

>  <MW (desalted)>
147.217

>  <ClogP>
1.847

>  <HBD>
1

>  <TPSA>
26.020

>  <RotBonds>
2

$$$$

            

 14 15  0  0  0  0            999 V2000
    0.0000    0.0000    0.0000 N   0  0  0  0  0  0  0  0  0  0  0  0
    0.7145   -0.4125    0.0000 C   0  0  0  0  0  0  0  0  0  0  0  0
    0.7145   -1.2375    0.0000 C   0  0  0  0  0  0  0  0  0  0  0  0
    1.4289   -1.6500    0.0000 C   0  0  0  0  0  0  0  0  0  0  0  0
    1.4289   -2.4750    0.0000 C   0  0  0  0  0  0  0  0  0  0  0  0
    0.7145   -2.8875    0.0000 C   0  0  0  0  0  0  0  0  0  0  0  0
    0.0000   -2.4750    0.0000 C   0  0  0  0  0  0  0  0  0  0  0  0
    0.0000   -1.6500    0.0000 C   0  0  0  0  0  0  0  0  0  0  0  0
    0.7145   -3.7125    0.0000 C   0  0  0  0  0  0  0  0  0  0  0  0
    1.4289   -4.1250    0.0000 C   0  0  0  0  0  0  0  0  0  0  0  0
    1.4289   -4.9500    0.0000 C   0  0  0  0  0  0  0  0  0  0  0  0
    0.7145   -5.3625    0.0000 C   0  0  0  0  0  0  0  0  0  0  0  0
    0.0000   -4.9500    0.0000 N   0  0  0  0  0  0  0  0  0  0  0  0
    0.0000   -4.1250    0.0000 C   0  0  0  0  0  0  0  0  0  0  0  0
  1  2  1  0  0  0  0
  2  3  1  0  0  0  0
  3  4  2  0  0  0  0
  4  5  1  0  0  0  0
  5  6  2  0  0  0  0
  6  7  1  0  0  0  0
  7  8  2  0  0  0  0
  3  8  1  0  0  0  0
  6  9  1  0  0  0  0
  9 10  2  0  0  0  0
 10 11  1  0  0  0  0
 11 12  2  0  0  0  0
 12 13  1  0  0  0  0
 13 14  2  0  0  0  0
  9 14  1  0  0  0  0
M  END
>  <Catalog ID>
Z732839756

>  <PlateID>
1198308-R-SPFL-15

>  <Well>
A04

>  <MW (desalted)>
184.237

>  <ClogP>
1.485

>  <HBD>
1

>  <TPSA>
38.910

>  <RotBonds>
2

$$$$

            

 13 13  0  0  0  0            999 V2000
    0.0000    0.0000    0.0000 Cl  0  0  0  0  0  0  0  0  0  0  0  0
    2.3571   -1.4000    0.0000 C   0  0  0  0  0  0  0  0  0  0  0  0
    3.0716   -0.9875    0.0000 C   0  0  0  0  0  0  0  0  0  0  0  0
    3.7861   -1.4000    0.0000 C   0  0  0  0  0  0  0  0  0  0  0  0
    3.0716   -0.1625    0.0000 C   0  0  0  0  0  0  0  0  0  0  0  0
    2.4883    0.4208    0.0000 N   0  0  0  0  0  0  0  0  0  0  0  0
    3.0716    1.0042    0.0000 C   0  0  0  0  0  0  0  0  0  0  0  0
    3.6550    0.4208    0.0000 C   0  0  0  0  0  0  0  0  0  0  0  0
    4.0675    1.1353    0.0000 C   0  0  0  0  0  0  0  0  0  0  0  0
    4.8925    1.1353    0.0000 C   0  0  0  0  0  0  0  0  0  0  0  0
    5.3050    0.4208    0.0000 O   0  0  0  0  0  0  0  0  0  0  0  0
    4.8925   -0.2936    0.0000 C   0  0  0  0  0  0  0  0  0  0  0  0
    4.0675   -0.2936    0.0000 C   0  0  0  0  0  0  0  0  0  0  0  0
  2  3  1  0  0  0  0
  3  4  1  0  0  0  0
  3  5  1  0  0  0  0
  5  6  1  0  0  0  0
  6  7  1  0  0  0  0
  7  8  1  0  0  0  0
  5  8  1  0  0  0  0
  8  9  1  0  0  0  0
  9 10  1  0  0  0  0
 10 11  1  0  0  0  0
 11 12  1  0  0  0  0
 12 13  1  0  0  0  0
  8 13  1  0  0  0  0
M  END
>  <Catalog ID>
Z2301533619

>  <PlateID>
1198308-R-SPFL-15

>  <Well>
A05

>  <MW (desalted)>
169.264

>  <ClogP>
0.856

>  <HBD>
1

>  <TPSA>
21.260

>  <RotBonds>
1

$$$$

            

 13 11  0  0  0  0            999 V2000
    0.0000    0.0000    0.0000 Cl  0  0  0  0  0  0  0  0  0  0  0  0
    2.0036    0.0000    0.0000 Cl  0  0  0  0  0  0  0  0  0  0  0  0
    1.2130   -1.6500    0.0000 C   0  0  0  0  0  0  0  0  0  0  0  0
    0.4985   -2.0625    0.0000 C   0  0  0  0  0  0  0  0  0  0  0  0
   -0.2159   -1.6500    0.0000 C   0  0  0  0  0  0  0  0  0  0  0  0
    0.4985   -2.8875    0.0000 C   0  0  0  0  0  0  0  0  0  0  0  0
    1.1660   -3.3724    0.0000 N   0  0  0  0  0  0  0  0  0  0  0  0
    0.9110   -4.1570    0.0000 C   0  0  0  0  0  0  0  0  0  0  0  0
    0.0860   -4.1570    0.0000 C   0  0  0  0  0  0  0  0  0  0  0  0
   -0.1689   -3.3724    0.0000 N   0  0  0  0  0  0  0  0  0  0  0  0
   -0.9535   -3.1175    0.0000 C   0  0  0  0  0  0  0  0  0  0  0  0
   -1.1251   -2.3105    0.0000 C   0  0  0  0  0  0  0  0  0  0  0  0
   -1.9097   -2.0556    0.0000 N   0  0  0  0  0  0  0  0  0  0  0  0
  3  4  1  0  0  0  0
  4  5  1  0  0  0  0
  4  6  1  0  0  0  0
  6  7  2  0  0  0  0
  7  8  1  0  0  0  0
  8  9  2  0  0  0  0
  9 10  1  0  0  0  0
  6 10  1  0  0  0  0
 10 11  1  0  0  0  0
 11 12  1  0  0  0  0
 12 13  1  0  0  0  0
M  END
>  <Catalog ID>
Z444349964

>  <PlateID>
1198308-R-SPFL-15

>  <Well>
A06

>  <MW (desalted)>
153.225

>  <ClogP>
0.431

>  <HBD>
1

>  <TPSA>
43.840

>  <RotBonds>
3

$$$$

            

 14 15  0  0  0  0            999 V2000
    1.4358   -2.7631    0.0000 C   0  0  0  0  0  0  0  0  0  0  0  0
    0.8838   -2.1500    0.0000 C   0  0  0  0  0  0  0  0  0  0  0  0
    0.0768   -2.3215    0.0000 C   0  0  0  0  0  0  0  0  0  0  0  0
   -0.1781   -3.1062    0.0000 O   0  0  0  0  0  0  0  0  0  0  0  0
   -0.4752   -1.7084    0.0000 O   0  0  0  0  0  0  0  0  0  0  0  0
    1.1387   -1.3654    0.0000 N   0  0  0  0  0  0  0  0  0  0  0  0
    0.6538   -0.6979    0.0000 C   0  0  0  0  0  0  0  0  0  0  0  0
    1.1387   -0.0305    0.0000 N   0  0  0  0  0  0  0  0  0  0  0  0
    1.9233   -0.2854    0.0000 C   0  0  0  0  0  0  0  0  0  0  0  0
    2.6378    0.1271    0.0000 C   0  0  0  0  0  0  0  0  0  0  0  0
    3.3523   -0.2854    0.0000 C   0  0  0  0  0  0  0  0  0  0  0  0
    3.3523   -1.1104    0.0000 C   0  0  0  0  0  0  0  0  0  0  0  0
    2.6378   -1.5229    0.0000 C   0  0  0  0  0  0  0  0  0  0  0  0
    1.9233   -1.1104    0.0000 C   0  0  0  0  0  0  0  0  0  0  0  0
  1  2  1  0  0  0  0
  2  3  1  0  0  0  0
  3  4  2  0  0  0  0
  3  5  1  0  0  0  0
  2  6  1  0  0  0  0
  6  7  1  0  0  0  0
  7  8  2  0  0  0  0
  8  9  1  0  0  0  0
  9 10  2  0  0  0  0
 10 11  1  0  0  0  0
 11 12  2  0  0  0  0
 12 13  1  0  0  0  0
 13 14  2  0  0  0  0
  6 14  1  0  0  0  0
  9 14  1  0  0  0  0
M  END
>  <Catalog ID>
Z57841909

>  <PlateID>
1198308-R-SPFL-15

>  <Well>
A07

>  <MW (desalted)>
190.199

>  <ClogP>
1.272

>  <HBD>
1

>  <TPSA>
55.120

>  <RotBonds>
2

$$$$

            

 11 11  0  0  0  0            999 V2000
    0.0000    0.0000    0.0000 Cl  0  0  0  0  0  0  0  0  0  0  0  0
    2.3571    0.4125    0.0000 C   0  0  0  0  0  0  0  0  0  0  0  0
    3.1418    0.6674    0.0000 C   0  0  0  0  0  0  0  0  0  0  0  0
    3.6267   -0.0000    0.0000 C   0  0  0  0  0  0  0  0  0  0  0  0
    3.1418   -0.6674    0.0000 C   0  0  0  0  0  0  0  0  0  0  0  0
    2.3571   -0.4125    0.0000 S   0  0  0  0  0  0  0  0  0  0  0  0
    4.0392    0.7145    0.0000 C   0  0  0  0  0  0  0  0  0  0  0  0
    4.8642    0.7145    0.0000 C   0  0  0  0  0  0  0  0  0  0  0  0
    5.2767   -0.0000    0.0000 C   0  0  0  0  0  0  0  0  0  0  0  0
    4.8642   -0.7145    0.0000 N   0  0  0  0  0  0  0  0  0  0  0  0
    4.0392   -0.7145    0.0000 C   0  0  0  0  0  0  0  0  0  0  0  0
  2  3  1  0  0  0  0
  3  4  1  0  0  0  0
  4  5  1  0  0  0  0
  5  6  1  0  0  0  0
  2  6  1  0  0  0  0
  4  7  1  0  0  0  0
  7  8  1  0  0  0  0
  8  9  1  0  0  0  0
  9 10  1  0  0  0  0
 10 11  1  0  0  0  0
  4 11  1  0  0  0  0
M  END
>  <Catalog ID>
Z2238624902

>  <PlateID>
1198308-R-SPFL-15

>  <Well>
A08

>  <MW (desalted)>
157.276

>  <ClogP>
1.265

>  <HBD>
1

>  <TPSA>
12.030

>  <RotBonds>
0

$$$$

            

 11 12  0  0  0  0            999 V2000
    0.3020   -2.5070    0.0000 C   0  0  0  0  0  0  0  0  0  0  0  0
    0.0470   -1.7224    0.0000 C   0  0  0  0  0  0  0  0  0  0  0  0
    0.7145   -1.2375    0.0000 C   0  0  0  0  0  0  0  0  0  0  0  0
    1.3819   -1.7224    0.0000 N   0  0  0  0  0  0  0  0  0  0  0  0
    1.1270   -2.5070    0.0000 N   0  0  0  0  0  0  0  0  0  0  0  0
    0.7145   -0.4125    0.0000 C   0  0  0  0  0  0  0  0  0  0  0  0
    0.0000    0.0000    0.0000 C   0  0  0  0  0  0  0  0  0  0  0  0
    0.0000    0.8250    0.0000 C   0  0  0  0  0  0  0  0  0  0  0  0
    0.7145    1.2375    0.0000 C   0  0  0  0  0  0  0  0  0  0  0  0
    1.4289    0.8250    0.0000 C   0  0  0  0  0  0  0  0  0  0  0  0
    1.4289    0.0000    0.0000 N   0  0  0  0  0  0  0  0  0  0  0  0
  1  2  2  0  0  0  0
  2  3  1  0  0  0  0
  3  4  2  0  0  0  0
  4  5  1  0  0  0  0
  1  5  1  0  0  0  0
  3  6  1  0  0  0  0
  6  7  2  0  0  0  0
  7  8  1  0  0  0  0
  8  9  2  0  0  0  0
  9 10  1  0  0  0  0
 10 11  2  0  0  0  0
  6 11  1  0  0  0  0
M  END
>  <Catalog ID>
Z815437658

>  <PlateID>
1198308-R-SPFL-15

>  <Well>
A09

>  <MW (desalted)>
145.161

>  <ClogP>
1.247

>  <HBD>
1

>  <TPSA>
41.570

>  <RotBonds>
1

$$$$

            

 13 14  0  0  0  0            999 V2000
    0.8838   -2.1500    0.0000 C   0  0  0  0  0  0  0  0  0  0  0  0
    1.1387   -1.3654    0.0000 N   0  0  0  0  0  0  0  0  0  0  0  0
    0.6538   -0.6979    0.0000 C   0  0  0  0  0  0  0  0  0  0  0  0
    1.1387   -0.0305    0.0000 C   0  0  0  0  0  0  0  0  0  0  0  0
    0.8838    0.7541    0.0000 C   0  0  0  0  0  0  0  0  0  0  0  0
    0.0768    0.9256    0.0000 O   0  0  0  0  0  0  0  0  0  0  0  0
    1.4358    1.3672    0.0000 O   0  0  0  0  0  0  0  0  0  0  0  0
    1.9233   -0.2854    0.0000 C   0  0  0  0  0  0  0  0  0  0  0  0
    2.6378    0.1271    0.0000 C   0  0  0  0  0  0  0  0  0  0  0  0
    3.3523   -0.2854    0.0000 C   0  0  0  0  0  0  0  0  0  0  0  0
    3.3523   -1.1104    0.0000 C   0  0  0  0  0  0  0  0  0  0  0  0
    2.6378   -1.5229    0.0000 C   0  0  0  0  0  0  0  0  0  0  0  0
    1.9233   -1.1104    0.0000 C   0  0  0  0  0  0  0  0  0  0  0  0
  1  2  1  0  0  0  0
  2  3  1  0  0  0  0
  3  4  2  0  0  0  0
  4  5  1  0  0  0  0
  5  6  2  0  0  0  0
  5  7  1  0  0  0  0
  4  8  1  0  0  0  0
  8  9  2  0  0  0  0
  9 10  1  0  0  0  0
 10 11  2  0  0  0  0
 11 12  1  0  0  0  0
 12 13  2  0  0  0  0
  2 13  1  0  0  0  0
  8 13  1  0  0  0  0
M  END
>  <Catalog ID>
Z90124414

>  <PlateID>
1198308-R-SPFL-15

>  <Well>
A10

>  <MW (desalted)>
175.184

>  <ClogP>
2.510

>  <HBD>
1

>  <TPSA>
42.230

>  <RotBonds>
1

$$$$

            

 14 14  0  0  0  0            999 V2000
    0.0000    0.0000    0.0000 Cl  0  0  0  0  0  0  0  0  0  0  0  0
    2.3571    2.9785    0.0000 C   0  0  0  0  0  0  0  0  0  0  0  0
    2.3571    2.1535    0.0000 N   0  0  0  0  0  0  0  0  0  0  0  0
    3.0716    1.7410    0.0000 C   0  0  0  0  0  0  0  0  0  0  0  0
    3.0716    0.9160    0.0000 C   0  0  0  0  0  0  0  0  0  0  0  0
    3.7391    0.4310    0.0000 N   0  0  0  0  0  0  0  0  0  0  0  0
    3.4841   -0.3536    0.0000 C   0  0  0  0  0  0  0  0  0  0  0  0
    2.6591   -0.3536    0.0000 N   0  0  0  0  0  0  0  0  0  0  0  0
    2.4042    0.4310    0.0000 O   0  0  0  0  0  0  0  0  0  0  0  0
    3.9690   -1.0210    0.0000 C   0  0  0  0  0  0  0  0  0  0  0  0
    4.7940   -1.0210    0.0000 C   0  0  0  0  0  0  0  0  0  0  0  0
    5.0490   -1.8056    0.0000 C   0  0  0  0  0  0  0  0  0  0  0  0
    4.3815   -2.2906    0.0000 C   0  0  0  0  0  0  0  0  0  0  0  0
    3.7141   -1.8056    0.0000 S   0  0  0  0  0  0  0  0  0  0  0  0
  2  3  1  0  0  0  0
  3  4  1  0  0  0  0
  4  5  1  0  0  0  0
  5  6  2  0  0  0  0
  6  7  1  0  0  0  0
  7  8  2  0  0  0  0
  8  9  1  0  0  0  0
  5  9  1  0  0  0  0
  7 10  1  0  0  0  0
 10 11  2  0  0  0  0
 11 12  1  0  0  0  0
 12 13  2  0  0  0  0
 13 14  1  0  0  0  0
 10 14  1  0  0  0  0
M  END
>  <Catalog ID>
Z1473032850

>  <PlateID>
1198308-R-SPFL-15

>  <Well>
A11

>  <MW (desalted)>
195.242

>  <ClogP>
0.857

>  <HBD>
1

>  <TPSA>
50.950

>  <RotBonds>
3

$$$$

            

 10 10  0  0  0  0            999 V2000
    0.7145    2.8875    0.0000 C   0  0  0  0  0  0  0  0  0  0  0  0
    0.7145    2.0625    0.0000 C   0  0  0  0  0  0  0  0  0  0  0  0
   -0.1105    2.0625    0.0000 F   0  0  0  0  0  0  0  0  0  0  0  0
    1.5395    2.0625    0.0000 F   0  0  0  0  0  0  0  0  0  0  0  0
    0.7145    1.2375    0.0000 C   0  0  0  0  0  0  0  0  0  0  0  0
    1.4289    0.8250    0.0000 C   0  0  0  0  0  0  0  0  0  0  0  0
    1.4289   -0.0000    0.0000 N   0  0  0  0  0  0  0  0  0  0  0  0
    0.7145   -0.4125    0.0000 C   0  0  0  0  0  0  0  0  0  0  0  0
    0.0000    0.0000    0.0000 C   0  0  0  0  0  0  0  0  0  0  0  0
    0.0000    0.8250    0.0000 N   0  0  0  0  0  0  0  0  0  0  0  0
  1  2  1  0  0  0  0
  2  3  1  0  0  0  0
  2  4  1  0  0  0  0
  2  5  1  0  0  0  0
  5  6  2  0  0  0  0
  6  7  1  0  0  0  0
  7  8  2  0  0  0  0
  8  9  1  0  0  0  0
  9 10  2  0  0  0  0
  5 10  1  0  0  0  0
M  END
>  <Catalog ID>
Z1201626593

>  <PlateID>
1198308-R-SPFL-15

>  <Well>
B02

>  <MW (desalted)>
144.122

>  <ClogP>
0.412

>  <HBD>
0

>  <TPSA>
25.780

>  <RotBonds>
1

$$$$

            

 12 12  0  0  0  0            999 V2000
    0.0000    0.0000    0.0000 Cl  0  0  0  0  0  0  0  0  0  0  0  0
    2.3571   -0.4292    0.0000 N   0  0  0  0  0  0  0  0  0  0  0  0
    3.1108   -0.7648    0.0000 C   0  0  0  0  0  0  0  0  0  0  0  0
    3.7783   -0.2798    0.0000 C   0  0  0  0  0  0  0  0  0  0  0  0
    3.7783    0.5452    0.0000 C   0  0  0  0  0  0  0  0  0  0  0  0
    4.5629    0.8001    0.0000 C   0  0  0  0  0  0  0  0  0  0  0  0
    5.0478    0.1327    0.0000 C   0  0  0  0  0  0  0  0  0  0  0  0
    5.5327    0.8001    0.0000 C   0  0  0  0  0  0  0  0  0  0  0  0
    6.3173    0.5452    0.0000 C   0  0  0  0  0  0  0  0  0  0  0  0
    6.3173   -0.2798    0.0000 C   0  0  0  0  0  0  0  0  0  0  0  0
    5.5327   -0.5348    0.0000 C   0  0  0  0  0  0  0  0  0  0  0  0
    4.5629   -0.5348    0.0000 O   0  0  0  0  0  0  0  0  0  0  0  0
  2  3  1  0  0  0  0
  3  4  1  0  0  0  0
  4  5  1  0  0  0  0
  5  6  1  0  0  0  0
  6  7  1  0  0  0  0
  7  8  1  0  0  0  0
  8  9  1  0  0  0  0
  9 10  1  0  0  0  0
 10 11  1  0  0  0  0
  7 11  1  0  0  0  0
  7 12  1  0  0  0  0
  4 12  1  0  0  0  0
M  END
>  <Catalog ID>
Z2471496861

>  <PlateID>
1198308-R-SPFL-15

>  <Well>
B03

>  <MW (desalted)>
155.237

>  <ClogP>
1.217

>  <HBD>
1

>  <TPSA>
35.250

>  <RotBonds>
1

$$$$

            

 14 15  0  0  0  0            999 V2000
    1.4289   -0.0000    0.0000 O   0  0  0  0  0  0  0  0  0  0  0  0
    0.7145   -0.4125    0.0000 C   0  0  0  0  0  0  0  0  0  0  0  0
    0.7145   -1.2375    0.0000 C   0  0  0  0  0  0  0  0  0  0  0  0
    1.3819   -1.7224    0.0000 N   0  0  0  0  0  0  0  0  0  0  0  0
    1.1270   -2.5070    0.0000 C   0  0  0  0  0  0  0  0  0  0  0  0
    0.3020   -2.5070    0.0000 O   0  0  0  0  0  0  0  0  0  0  0  0
    0.0470   -1.7224    0.0000 C   0  0  0  0  0  0  0  0  0  0  0  0
   -0.7376   -1.4675    0.0000 C   0  0  0  0  0  0  0  0  0  0  0  0
   -1.3507   -2.0195    0.0000 C   0  0  0  0  0  0  0  0  0  0  0  0
   -2.1353   -1.7646    0.0000 C   0  0  0  0  0  0  0  0  0  0  0  0
   -2.3068   -0.9576    0.0000 C   0  0  0  0  0  0  0  0  0  0  0  0
   -3.0915   -0.7027    0.0000 F   0  0  0  0  0  0  0  0  0  0  0  0
   -1.6937   -0.4056    0.0000 C   0  0  0  0  0  0  0  0  0  0  0  0
   -0.9091   -0.6605    0.0000 C   0  0  0  0  0  0  0  0  0  0  0  0
  1  2  1  0  0  0  0
  2  3  1  0  0  0  0
  3  4  1  0  0  0  0
  4  5  2  0  0  0  0
  5  6  1  0  0  0  0
  6  7  1  0  0  0  0
  3  7  2  0  0  0  0
  7  8  1  0  0  0  0
  8  9  2  0  0  0  0
  9 10  1  0  0  0  0
 10 11  2  0  0  0  0
 11 12  1  0  0  0  0
 11 13  1  0  0  0  0
 13 14  2  0  0  0  0
  8 14  1  0  0  0  0
M  END
>  <Catalog ID>
Z1312177542

>  <PlateID>
1198308-R-SPFL-15

>  <Well>
B04

>  <MW (desalted)>
193.174

>  <ClogP>
0.741

>  <HBD>
1

>  <TPSA>
46.260

>  <RotBonds>
2

$$$$

            

 12 12  0  0  0  0            999 V2000
    0.0000    0.0000    0.0000 Cl  0  0  0  0  0  0  0  0  0  0  0  0
    3.1553    1.7250    0.0000 N   0  0  0  0  0  0  0  0  0  0  0  0
    3.8697    1.3125    0.0000 C   0  0  0  0  0  0  0  0  0  0  0  0
    3.8697    0.4875    0.0000 C   0  0  0  0  0  0  0  0  0  0  0  0
    4.5842    0.0750    0.0000 O   0  0  0  0  0  0  0  0  0  0  0  0
    4.5842   -0.7500    0.0000 C   0  0  0  0  0  0  0  0  0  0  0  0
    3.8697   -1.1625    0.0000 C   0  0  0  0  0  0  0  0  0  0  0  0
    3.1553   -0.7500    0.0000 C   0  0  0  0  0  0  0  0  0  0  0  0
    2.3706   -1.0049    0.0000 S   0  0  0  0  0  0  0  0  0  0  0  0
    1.8857   -0.3375    0.0000 C   0  0  0  0  0  0  0  0  0  0  0  0
    2.3706    0.3299    0.0000 C   0  0  0  0  0  0  0  0  0  0  0  0
    3.1553    0.0750    0.0000 C   0  0  0  0  0  0  0  0  0  0  0  0
  2  3  1  0  0  0  0
  3  4  1  0  0  0  0
  4  5  1  0  0  0  0
  5  6  1  0  0  0  0
  6  7  1  0  0  0  0
  7  8  1  0  0  0  0
  8  9  1  0  0  0  0
  9 10  1  0  0  0  0
 10 11  2  0  0  0  0
 11 12  1  0  0  0  0
  4 12  1  0  0  0  0
  8 12  2  0  0  0  0
M  END
>  <Catalog ID>
Z2895181348

>  <PlateID>
1198308-R-SPFL-15

>  <Well>
B05

>  <MW (desalted)>
169.244

>  <ClogP>
0.650

>  <HBD>
1

>  <TPSA>
35.250

>  <RotBonds>
1

$$$$

            

 11 11  0  0  0  0            999 V2000
    0.0000    3.3000    0.0000 N   0  0  0  0  0  0  0  0  0  0  0  0
    0.0000    2.4750    0.0000 C   0  0  0  0  0  0  0  0  0  0  0  0
   -0.7145    2.0625    0.0000 O   0  0  0  0  0  0  0  0  0  0  0  0
    0.7145    2.0625    0.0000 C   0  0  0  0  0  0  0  0  0  0  0  0
    0.7145    1.2375    0.0000 C   0  0  0  0  0  0  0  0  0  0  0  0
    1.4289    0.8250    0.0000 C   0  0  0  0  0  0  0  0  0  0  0  0
    1.4289   -0.0000    0.0000 C   0  0  0  0  0  0  0  0  0  0  0  0
    0.7145   -0.4125    0.0000 C   0  0  0  0  0  0  0  0  0  0  0  0
    0.0000    0.0000    0.0000 C   0  0  0  0  0  0  0  0  0  0  0  0
    0.0000    0.8250    0.0000 C   0  0  0  0  0  0  0  0  0  0  0  0
   -0.7145    1.2375    0.0000 F   0  0  0  0  0  0  0  0  0  0  0  0
  1  2  1  0  0  0  0
  2  3  2  0  0  0  0
  2  4  1  0  0  0  0
  4  5  1  0  0  0  0
  5  6  2  0  0  0  0
  6  7  1  0  0  0  0
  7  8  2  0  0  0  0
  8  9  1  0  0  0  0
  9 10  2  0  0  0  0
  5 10  1  0  0  0  0
 10 11  1  0  0  0  0
M  END
>  <Catalog ID>
Z33546803

>  <PlateID>
1198308-R-SPFL-15

>  <Well>
B06

>  <MW (desalted)>
153.154

>  <ClogP>
0.597

>  <HBD>
1

>  <TPSA>
43.090

>  <RotBonds>
2

$$$$

            

 13 13  0  0  0  0            999 V2000
    0.0000    0.0000    0.0000 Cl  0  0  0  0  0  0  0  0  0  0  0  0
    3.0716   -2.0625    0.0000 C   0  0  0  0  0  0  0  0  0  0  0  0
    2.3571   -1.6500    0.0000 C   0  0  0  0  0  0  0  0  0  0  0  0
    2.3571   -0.8250    0.0000 S   0  0  0  0  0  0  0  0  0  0  0  0
    3.0716   -0.4125    0.0000 C   0  0  0  0  0  0  0  0  0  0  0  0
    3.7861   -0.8250    0.0000 C   0  0  0  0  0  0  0  0  0  0  0  0
    3.7861   -1.6500    0.0000 N   0  0  0  0  0  0  0  0  0  0  0  0
    3.0716    0.4125    0.0000 C   0  0  0  0  0  0  0  0  0  0  0  0
    2.3571    0.8250    0.0000 C   0  0  0  0  0  0  0  0  0  0  0  0
    2.3571    1.6500    0.0000 C   0  0  0  0  0  0  0  0  0  0  0  0
    3.0716    2.0625    0.0000 C   0  0  0  0  0  0  0  0  0  0  0  0
    3.7861    1.6500    0.0000 C   0  0  0  0  0  0  0  0  0  0  0  0
    3.7861    0.8250    0.0000 C   0  0  0  0  0  0  0  0  0  0  0  0
  2  3  1  0  0  0  0
  3  4  1  0  0  0  0
  4  5  1  0  0  0  0
  5  6  1  0  0  0  0
  6  7  1  0  0  0  0
  2  7  1  0  0  0  0
  5  8  1  0  0  0  0
  8  9  2  0  0  0  0
  9 10  1  0  0  0  0
 10 11  2  0  0  0  0
 11 12  1  0  0  0  0
 12 13  2  0  0  0  0
  8 13  1  0  0  0  0
M  END
>  <Catalog ID>
Z2686049148

>  <PlateID>
1198308-R-SPFL-15

>  <Well>
B07

>  <MW (desalted)>
179.282

>  <ClogP>
1.944

>  <HBD>
1

>  <TPSA>
12.030

>  <RotBonds>
1

$$$$

            

 11 12  0  0  0  0            999 V2000
   -0.5837   -1.4124    0.0000 O   0  0  0  0  0  0  0  0  0  0  0  0
   -0.1712   -0.6979    0.0000 C   0  0  0  0  0  0  0  0  0  0  0  0
    0.6538   -0.6979    0.0000 C   0  0  0  0  0  0  0  0  0  0  0  0
    1.1387   -0.0305    0.0000 C   0  0  0  0  0  0  0  0  0  0  0  0
    1.9233   -0.2854    0.0000 N   0  0  0  0  0  0  0  0  0  0  0  0
    2.6378    0.1271    0.0000 C   0  0  0  0  0  0  0  0  0  0  0  0
    3.3523   -0.2854    0.0000 C   0  0  0  0  0  0  0  0  0  0  0  0
    3.3523   -1.1104    0.0000 C   0  0  0  0  0  0  0  0  0  0  0  0
    2.6378   -1.5229    0.0000 C   0  0  0  0  0  0  0  0  0  0  0  0
    1.9233   -1.1104    0.0000 C   0  0  0  0  0  0  0  0  0  0  0  0
    1.1387   -1.3654    0.0000 N   0  0  0  0  0  0  0  0  0  0  0  0
  1  2  1  0  0  0  0
  2  3  1  0  0  0  0
  3  4  2  0  0  0  0
  4  5  1  0  0  0  0
  5  6  1  0  0  0  0
  6  7  1  0  0  0  0
  7  8  1  0  0  0  0
  8  9  1  0  0  0  0
  9 10  1  0  0  0  0
  5 10  1  0  0  0  0
 10 11  2  0  0  0  0
  3 11  1  0  0  0  0
M  END
>  <Catalog ID>
Z1486006983

>  <PlateID>
1198308-R-SPFL-15

>  <Well>
B08

>  <MW (desalted)>
152.194

>  <ClogP>
-0.208

>  <HBD>
1

>  <TPSA>
38.050

>  <RotBonds>
1

$$$$

            

 12 13  0  0  0  0            999 V2000
    0.8838   -2.1500    0.0000 C   0  0  0  0  0  0  0  0  0  0  0  0
    1.1387   -1.3654    0.0000 C   0  0  0  0  0  0  0  0  0  0  0  0
    0.6538   -0.6979    0.0000 C   0  0  0  0  0  0  0  0  0  0  0  0
    1.1387   -0.0305    0.0000 N   0  0  0  0  0  0  0  0  0  0  0  0
    1.9233   -0.2854    0.0000 N   0  0  0  0  0  0  0  0  0  0  0  0
    2.6378    0.1271    0.0000 C   0  0  0  0  0  0  0  0  0  0  0  0
    2.6378    0.9521    0.0000 N   0  0  0  0  0  0  0  0  0  0  0  0
    3.3523   -0.2854    0.0000 C   0  0  0  0  0  0  0  0  0  0  0  0
    4.0668    0.1271    0.0000 C   0  0  0  0  0  0  0  0  0  0  0  0
    3.3523   -1.1104    0.0000 C   0  0  0  0  0  0  0  0  0  0  0  0
    2.6378   -1.5229    0.0000 N   0  0  0  0  0  0  0  0  0  0  0  0
    1.9233   -1.1104    0.0000 C   0  0  0  0  0  0  0  0  0  0  0  0
  1  2  1  0  0  0  0
  2  3  1  0  0  0  0
  3  4  2  0  0  0  0
  4  5  1  0  0  0  0
  5  6  1  0  0  0  0
  6  7  1  0  0  0  0
  6  8  2  0  0  0  0
  8  9  1  0  0  0  0
  8 10  1  0  0  0  0
 10 11  2  0  0  0  0
 11 12  1  0  0  0  0
  2 12  2  0  0  0  0
  5 12  1  0  0  0  0
M  END
>  <Catalog ID>
Z1262624635

>  <PlateID>
1198308-R-SPFL-15

>  <Well>
B09

>  <MW (desalted)>
162.192

>  <ClogP>
0.897

>  <HBD>
1

>  <TPSA>
56.210

>  <RotBonds>
0

$$$$

            

 14 13  0  0  0  0            999 V2000
    0.0000    0.0000    0.0000 Cl  0  0  0  0  0  0  0  0  0  0  0  0
    2.0036    0.0000    0.0000 Cl  0  0  0  0  0  0  0  0  0  0  0  0
   -1.7862   -4.1250    0.0000 N   0  0  0  0  0  0  0  0  0  0  0  0
   -1.7862   -3.3000    0.0000 C   0  0  0  0  0  0  0  0  0  0  0  0
   -1.0717   -2.8875    0.0000 C   0  0  0  0  0  0  0  0  0  0  0  0
   -1.0717   -2.0625    0.0000 C   0  0  0  0  0  0  0  0  0  0  0  0
   -0.3572   -1.6500    0.0000 C   0  0  0  0  0  0  0  0  0  0  0  0
    0.3572   -2.0625    0.0000 C   0  0  0  0  0  0  0  0  0  0  0  0
    1.0717   -1.6500    0.0000 C   0  0  0  0  0  0  0  0  0  0  0  0
    1.7862   -2.0625    0.0000 C   0  0  0  0  0  0  0  0  0  0  0  0
    1.7862   -2.8875    0.0000 C   0  0  0  0  0  0  0  0  0  0  0  0
    1.0717   -3.3000    0.0000 C   0  0  0  0  0  0  0  0  0  0  0  0
    0.3572   -2.8875    0.0000 C   0  0  0  0  0  0  0  0  0  0  0  0
   -0.3572   -3.3000    0.0000 N   0  0  0  0  0  0  0  0  0  0  0  0
  3  4  1  0  0  0  0
  4  5  1  0  0  0  0
  5  6  1  0  0  0  0
  6  7  2  0  0  0  0
  7  8  1  0  0  0  0
  8  9  2  0  0  0  0
  9 10  1  0  0  0  0
 10 11  2  0  0  0  0
 11 12  1  0  0  0  0
 12 13  2  0  0  0  0
  8 13  1  0  0  0  0
 13 14  1  0  0  0  0
  5 14  2  0  0  0  0
M  END
>  <Catalog ID>
Z2106596235

>  <PlateID>
1198308-R-SPFL-15

>  <Well>
B10

>  <MW (desalted)>
158.200

>  <ClogP>
0.981

>  <HBD>
1

>  <TPSA>
38.910

>  <RotBonds>
1

$$$$

            

 15 16  0  0  0  0            999 V2000
    0.7145   -0.4125    0.0000 C   0  0  0  0  0  0  0  0  0  0  0  0
    0.7145   -1.2375    0.0000 C   0  0  0  0  0  0  0  0  0  0  0  0
    1.4289   -1.6500    0.0000 C   0  0  0  0  0  0  0  0  0  0  0  0
    1.4289   -2.4750    0.0000 C   0  0  0  0  0  0  0  0  0  0  0  0
    0.7145   -2.8875    0.0000 C   0  0  0  0  0  0  0  0  0  0  0  0
    0.0000   -2.4750    0.0000 N   0  0  0  0  0  0  0  0  0  0  0  0
    0.0000   -1.6500    0.0000 N   0  0  0  0  0  0  0  0  0  0  0  0
    0.7145   -3.7125    0.0000 C   0  0  0  0  0  0  0  0  0  0  0  0
    1.4289   -4.1250    0.0000 C   0  0  0  0  0  0  0  0  0  0  0  0
    1.4289   -4.9500    0.0000 C   0  0  0  0  0  0  0  0  0  0  0  0
    0.7145   -5.3625    0.0000 C   0  0  0  0  0  0  0  0  0  0  0  0
    0.7145   -6.1875    0.0000 C   0  0  0  0  0  0  0  0  0  0  0  0
    1.4289   -6.6000    0.0000 O   0  0  0  0  0  0  0  0  0  0  0  0
    0.0000   -4.9500    0.0000 C   0  0  0  0  0  0  0  0  0  0  0  0
    0.0000   -4.1250    0.0000 C   0  0  0  0  0  0  0  0  0  0  0  0
  1  2  1  0  0  0  0
  2  3  2  0  0  0  0
  3  4  1  0  0  0  0
  4  5  2  0  0  0  0
  5  6  1  0  0  0  0
  6  7  2  0  0  0  0
  2  7  1  0  0  0  0
  5  8  1  0  0  0  0
  8  9  2  0  0  0  0
  9 10  1  0  0  0  0
 10 11  2  0  0  0  0
 11 12  1  0  0  0  0
 12 13  1  0  0  0  0
 11 14  1  0  0  0  0
 14 15  2  0  0  0  0
  8 15  1  0  0  0  0
M  END
>  <Catalog ID>
Z1509672731

>  <PlateID>
1198308-R-SPFL-15

>  <Well>
B11

>  <MW (desalted)>
200.236

>  <ClogP>
0.977

>  <HBD>
1

>  <TPSA>
46.010

>  <RotBonds>
2

$$$$

            

 11 12  0  0  0  0            999 V2000
    0.7145    5.9411    0.0000 C   0  0  0  0  0  0  0  0  0  0  0  0
    1.4289    5.5286    0.0000 C   0  0  0  0  0  0  0  0  0  0  0  0
    1.4289    4.7036    0.0000 C   0  0  0  0  0  0  0  0  0  0  0  0
    0.7145    4.2911    0.0000 C   0  0  0  0  0  0  0  0  0  0  0  0
    0.0000    4.7036    0.0000 N   0  0  0  0  0  0  0  0  0  0  0  0
    0.0000    5.5286    0.0000 C   0  0  0  0  0  0  0  0  0  0  0  0
    0.7145    3.4661    0.0000 C   0  0  0  0  0  0  0  0  0  0  0  0
    1.3819    2.9812    0.0000 N   0  0  0  0  0  0  0  0  0  0  0  0
    1.1270    2.1965    0.0000 C   0  0  0  0  0  0  0  0  0  0  0  0
    0.3020    2.1965    0.0000 C   0  0  0  0  0  0  0  0  0  0  0  0
    0.0470    2.9812    0.0000 S   0  0  0  0  0  0  0  0  0  0  0  0
  1  2  1  0  0  0  0
  2  3  1  0  0  0  0
  3  4  1  0  0  0  0
  4  5  1  0  0  0  0
  5  6  1  0  0  0  0
  1  6  1  0  0  0  0
  4  7  1  0  0  0  0
  7  8  2  0  0  0  0
  8  9  1  0  0  0  0
  9 10  2  0  0  0  0
 10 11  1  0  0  0  0
  7 11  1  0  0  0  0
M  END
>  <Catalog ID>
Z979729664

>  <PlateID>
1198308-R-SPFL-15

>  <Well>
C02

>  <MW (desalted)>
168.259

>  <ClogP>
0.837

>  <HBD>
1

>  <TPSA>
24.920

>  <RotBonds>
1

$$$$

            

 12 14  0  0  0  0            999 V2000
   -0.1709    0.4125    0.0000 C   0  0  0  0  0  0  0  0  0  0  0  0
    0.4125    0.9959    0.0000 C   0  0  0  0  0  0  0  0  0  0  0  0
    0.9959    0.4125    0.0000 C   0  0  0  0  0  0  0  0  0  0  0  0
    0.4125   -0.1709    0.0000 C   0  0  0  0  0  0  0  0  0  0  0  0
    1.5792    0.9959    0.0000 C   0  0  0  0  0  0  0  0  0  0  0  0
    2.1626    0.4125    0.0000 N   0  0  0  0  0  0  0  0  0  0  0  0
    1.5792   -0.1709    0.0000 C   0  0  0  0  0  0  0  0  0  0  0  0
    1.5792   -0.9959    0.0000 C   0  0  0  0  0  0  0  0  0  0  0  0
    2.2467   -1.4808    0.0000 C   0  0  0  0  0  0  0  0  0  0  0  0
    1.9917   -2.2654    0.0000 C   0  0  0  0  0  0  0  0  0  0  0  0
    1.1667   -2.2654    0.0000 C   0  0  0  0  0  0  0  0  0  0  0  0
    0.9118   -1.4808    0.0000 O   0  0  0  0  0  0  0  0  0  0  0  0
  1  2  1  0  0  0  0
  2  3  1  0  0  0  0
  3  4  1  0  0  0  0
  1  4  1  0  0  0  0
  3  5  1  0  0  0  0
  5  6  1  0  0  0  0
  6  7  1  0  0  0  0
  3  7  1  0  0  0  0
  7  8  1  0  0  0  0
  8  9  2  0  0  0  0
  9 10  1  0  0  0  0
 10 11  2  0  0  0  0
 11 12  1  0  0  0  0
  8 12  1  0  0  0  0
M  END
>  <Catalog ID>
Z2158469656

>  <PlateID>
1198308-R-SPFL-15

>  <Well>
C03

>  <MW (desalted)>
163.216

>  <ClogP>
1.424

>  <HBD>
1

>  <TPSA>
25.170

>  <RotBonds>
1

$$$$

            

 12 12  0  0  0  0            999 V2000
    0.0000    0.0000    0.0000 Cl  0  0  0  0  0  0  0  0  0  0  0  0
    5.2987    1.4250    0.0000 N   0  0  0  0  0  0  0  0  0  0  0  0
    5.2987    0.6000    0.0000 C   0  0  0  0  0  0  0  0  0  0  0  0
    4.5842    0.1875    0.0000 C   0  0  0  0  0  0  0  0  0  0  0  0
    4.5842   -0.6375    0.0000 C   0  0  0  0  0  0  0  0  0  0  0  0
    3.8697   -1.0500    0.0000 C   0  0  0  0  0  0  0  0  0  0  0  0
    3.1553   -0.6375    0.0000 C   0  0  0  0  0  0  0  0  0  0  0  0
    2.3706   -0.8924    0.0000 O   0  0  0  0  0  0  0  0  0  0  0  0
    1.8857   -0.2250    0.0000 C   0  0  0  0  0  0  0  0  0  0  0  0
    2.3706    0.4424    0.0000 C   0  0  0  0  0  0  0  0  0  0  0  0
    3.1553    0.1875    0.0000 C   0  0  0  0  0  0  0  0  0  0  0  0
    3.8697    0.6000    0.0000 C   0  0  0  0  0  0  0  0  0  0  0  0
  2  3  1  0  0  0  0
  3  4  1  0  0  0  0
  4  5  2  0  0  0  0
  5  6  1  0  0  0  0
  6  7  2  0  0  0  0
  7  8  1  0  0  0  0
  8  9  1  0  0  0  0
  9 10  2  0  0  0  0
 10 11  1  0  0  0  0
  7 11  1  0  0  0  0
 11 12  2  0  0  0  0
  4 12  1  0  0  0  0
M  END
>  <Catalog ID>
Z2679312503

>  <PlateID>
1198308-R-SPFL-15

>  <Well>
C04

>  <MW (desalted)>
147.174

>  <ClogP>
1.654

>  <HBD>
1

>  <TPSA>
39.160

>  <RotBonds>
1

$$$$

            

 11 12  0  0  0  0            999 V2000
   -0.1712   -0.6979    0.0000 C   0  0  0  0  0  0  0  0  0  0  0  0
    0.6538   -0.6979    0.0000 C   0  0  0  0  0  0  0  0  0  0  0  0
    1.1387   -0.0305    0.0000 C   0  0  0  0  0  0  0  0  0  0  0  0
    1.9233   -0.2854    0.0000 N   0  0  0  0  0  0  0  0  0  0  0  0
    2.6378    0.1271    0.0000 C   0  0  0  0  0  0  0  0  0  0  0  0
    3.3523   -0.2854    0.0000 C   0  0  0  0  0  0  0  0  0  0  0  0
    4.0668    0.1271    0.0000 N   0  0  0  0  0  0  0  0  0  0  0  0
    3.3523   -1.1104    0.0000 C   0  0  0  0  0  0  0  0  0  0  0  0
    2.6378   -1.5229    0.0000 C   0  0  0  0  0  0  0  0  0  0  0  0
    1.9233   -1.1104    0.0000 C   0  0  0  0  0  0  0  0  0  0  0  0
    1.1387   -1.3654    0.0000 N   0  0  0  0  0  0  0  0  0  0  0  0
  1  2  1  0  0  0  0
  2  3  2  0  0  0  0
  3  4  1  0  0  0  0
  4  5  1  0  0  0  0
  5  6  2  0  0  0  0
  6  7  1  0  0  0  0
  6  8  1  0  0  0  0
  8  9  2  0  0  0  0
  9 10  1  0  0  0  0
  4 10  1  0  0  0  0
 10 11  2  0  0  0  0
  2 11  1  0  0  0  0
M  END
>  <Catalog ID>
Z406361488

>  <PlateID>
1198308-R-SPFL-15

>  <Well>
C05

>  <MW (desalted)>
147.177

>  <ClogP>
1.148

>  <HBD>
1

>  <TPSA>
43.320

>  <RotBonds>
0

$$$$

            

 12 13  0  0  0  0            999 V2000
    1.4289   -2.4750    0.0000 C   0  0  0  0  0  0  0  0  0  0  0  0
    0.7145   -2.8875    0.0000 C   0  0  0  0  0  0  0  0  0  0  0  0
    0.0000   -2.4750    0.0000 O   0  0  0  0  0  0  0  0  0  0  0  0
    0.0000   -1.6500    0.0000 C   0  0  0  0  0  0  0  0  0  0  0  0
    0.7145   -1.2375    0.0000 C   0  0  0  0  0  0  0  0  0  0  0  0
    1.4289   -1.6500    0.0000 N   0  0  0  0  0  0  0  0  0  0  0  0
    0.7145   -0.4125    0.0000 C   0  0  0  0  0  0  0  0  0  0  0  0
    0.0000    0.0000    0.0000 C   0  0  0  0  0  0  0  0  0  0  0  0
    0.0000    0.8250    0.0000 C   0  0  0  0  0  0  0  0  0  0  0  0
    0.7145    1.2375    0.0000 C   0  0  0  0  0  0  0  0  0  0  0  0
    1.4289    0.8250    0.0000 C   0  0  0  0  0  0  0  0  0  0  0  0
    1.4289   -0.0000    0.0000 C   0  0  0  0  0  0  0  0  0  0  0  0
  1  2  1  0  0  0  0
  2  3  1  0  0  0  0
  3  4  1  0  0  0  0
  4  5  1  0  0  0  0
  5  6  1  0  0  0  0
  1  6  1  0  0  0  0
  5  7  1  0  0  0  0
  7  8  2  0  0  0  0
  8  9  1  0  0  0  0
  9 10  2  0  0  0  0
 10 11  1  0  0  0  0
 11 12  2  0  0  0  0
  7 12  1  0  0  0  0
M  END
>  <Catalog ID>
Z1097086259

>  <PlateID>
1198308-R-SPFL-15

>  <Well>
C06

>  <MW (desalted)>
163.216

>  <ClogP>
1.150

>  <HBD>
1

>  <TPSA>
21.260

>  <RotBonds>
1

$$$$

            

 13 12  0  0  0  0            999 V2000
    0.0000    0.0000    0.0000 Cl  0  0  0  0  0  0  0  0  0  0  0  0
    2.0036    0.0000    0.0000 Cl  0  0  0  0  0  0  0  0  0  0  0  0
   -0.8190   -1.6500    0.0000 C   0  0  0  0  0  0  0  0  0  0  0  0
   -0.3340   -2.3174    0.0000 N   0  0  0  0  0  0  0  0  0  0  0  0
   -0.6696   -3.0711    0.0000 C   0  0  0  0  0  0  0  0  0  0  0  0
   -0.1847   -3.7386    0.0000 C   0  0  0  0  0  0  0  0  0  0  0  0
    0.6403   -3.7386    0.0000 N   0  0  0  0  0  0  0  0  0  0  0  0
    0.8953   -4.5232    0.0000 C   0  0  0  0  0  0  0  0  0  0  0  0
    0.2278   -5.0081    0.0000 C   0  0  0  0  0  0  0  0  0  0  0  0
   -0.4396   -4.5232    0.0000 O   0  0  0  0  0  0  0  0  0  0  0  0
    0.2278   -5.8331    0.0000 C   0  0  0  0  0  0  0  0  0  0  0  0
    0.6403   -6.5476    0.0000 C   0  0  0  0  0  0  0  0  0  0  0  0
   -0.1847   -6.5476    0.0000 C   0  0  0  0  0  0  0  0  0  0  0  0
  3  4  1  0  0  0  0
  4  5  1  0  0  0  0
  5  6  1  0  0  0  0
  6  7  2  0  0  0  0
  7  8  1  0  0  0  0
  8  9  2  0  0  0  0
  9 10  1  0  0  0  0
  6 10  1  0  0  0  0
  9 11  1  0  0  0  0
 11 12  1  0  0  0  0
 12 13  1  0  0  0  0
 11 13  1  0  0  0  0
M  END
>  <Catalog ID>
Z4372806044

>  <PlateID>
1198308-R-SPFL-15

>  <Well>
C07

>  <MW (desalted)>
152.194

>  <ClogP>
-0.098

>  <HBD>
1

>  <TPSA>
38.060

>  <RotBonds>
3

$$$$

            

 11 10  0  0  0  0            999 V2000
    0.0000    0.0000    0.0000 Cl  0  0  0  0  0  0  0  0  0  0  0  0
    2.4823    2.0625    0.0000 F   0  0  0  0  0  0  0  0  0  0  0  0
    2.4823    1.2375    0.0000 C   0  0  0  0  0  0  0  0  0  0  0  0
    1.7679    0.8250    0.0000 F   0  0  0  0  0  0  0  0  0  0  0  0
    3.1968    0.8250    0.0000 C   0  0  0  0  0  0  0  0  0  0  0  0
    3.1968    0.0000    0.0000 C   0  0  0  0  0  0  0  0  0  0  0  0
    3.9113   -0.4125    0.0000 C   0  0  0  0  0  0  0  0  0  0  0  0
    3.9113   -1.2375    0.0000 O   0  0  0  0  0  0  0  0  0  0  0  0
    3.1968   -1.6500    0.0000 C   0  0  0  0  0  0  0  0  0  0  0  0
    2.4823   -1.2375    0.0000 C   0  0  0  0  0  0  0  0  0  0  0  0
    2.4823   -0.4125    0.0000 N   0  0  0  0  0  0  0  0  0  0  0  0
  2  3  1  0  0  0  0
  3  4  1  0  0  0  0
  3  5  1  0  0  0  0
  5  6  1  0  0  0  0
  6  7  1  0  0  0  0
  7  8  1  0  0  0  0
  8  9  1  0  0  0  0
  9 10  1  0  0  0  0
 10 11  1  0  0  0  0
  6 11  1  0  0  0  0
M  END
>  <Catalog ID>
Z3433726304

>  <PlateID>
1198308-R-SPFL-15

>  <Well>
C08

>  <MW (desalted)>
151.154

>  <ClogP>
-0.214

>  <HBD>
1

>  <TPSA>
21.260

>  <RotBonds>
2

$$$$

            

 13 12  0  0  0  0            999 V2000
    0.0000    0.0000    0.0000 Cl  0  0  0  0  0  0  0  0  0  0  0  0
    2.0036    0.0000    0.0000 Cl  0  0  0  0  0  0  0  0  0  0  0  0
    1.6221   -1.6500    0.0000 N   0  0  0  0  0  0  0  0  0  0  0  0
    1.6221   -2.4750    0.0000 C   0  0  0  0  0  0  0  0  0  0  0  0
    0.9076   -2.8875    0.0000 C   0  0  0  0  0  0  0  0  0  0  0  0
    0.9076   -3.7125    0.0000 N   0  0  0  0  0  0  0  0  0  0  0  0
    0.1931   -4.1250    0.0000 C   0  0  0  0  0  0  0  0  0  0  0  0
   -0.5214   -3.7125    0.0000 C   0  0  0  0  0  0  0  0  0  0  0  0
   -1.3060   -3.9674    0.0000 C   0  0  0  0  0  0  0  0  0  0  0  0
   -1.7909   -3.3000    0.0000 C   0  0  0  0  0  0  0  0  0  0  0  0
   -1.3060   -2.6326    0.0000 C   0  0  0  0  0  0  0  0  0  0  0  0
   -0.5214   -2.8875    0.0000 C   0  0  0  0  0  0  0  0  0  0  0  0
    0.1931   -2.4750    0.0000 N   0  0  0  0  0  0  0  0  0  0  0  0
  3  4  1  0  0  0  0
  4  5  1  0  0  0  0
  5  6  2  0  0  0  0
  6  7  1  0  0  0  0
  7  8  2  0  0  0  0
  8  9  1  0  0  0  0
  9 10  1  0  0  0  0
 10 11  1  0  0  0  0
 11 12  1  0  0  0  0
  8 12  1  0  0  0  0
 12 13  2  0  0  0  0
  5 13  1  0  0  0  0
M  END
>  <Catalog ID>
Z2289799391

>  <PlateID>
1198308-R-SPFL-15

>  <Well>
C09

>  <MW (desalted)>
149.193

>  <ClogP>
-0.347

>  <HBD>
1

>  <TPSA>
51.800

>  <RotBonds>
1

$$$$

            

 10 10  0  0  0  0            999 V2000
    1.2822    2.3518    0.0000 N   0  0  0  0  0  0  0  0  0  0  0  0
    0.5678    1.9393    0.0000 C   0  0  0  0  0  0  0  0  0  0  0  0
    0.5678    1.1143    0.0000 C   0  0  0  0  0  0  0  0  0  0  0  0
    1.2352    0.6294    0.0000 N   0  0  0  0  0  0  0  0  0  0  0  0
    0.9803   -0.1553    0.0000 C   0  0  0  0  0  0  0  0  0  0  0  0
    0.1553   -0.1553    0.0000 C   0  0  0  0  0  0  0  0  0  0  0  0
   -0.0997    0.6294    0.0000 N   0  0  0  0  0  0  0  0  0  0  0  0
   -0.8843    0.8843    0.0000 C   0  0  0  0  0  0  0  0  0  0  0  0
   -1.4974    0.3323    0.0000 F   0  0  0  0  0  0  0  0  0  0  0  0
   -1.0558    1.6913    0.0000 F   0  0  0  0  0  0  0  0  0  0  0  0
  1  2  1  0  0  0  0
  2  3  1  0  0  0  0
  3  4  2  0  0  0  0
  4  5  1  0  0  0  0
  5  6  2  0  0  0  0
  6  7  1  0  0  0  0
  3  7  1  0  0  0  0
  7  8  1  0  0  0  0
  8  9  1  0  0  0  0
  8 10  1  0  0  0  0
M  END
>  <Catalog ID>
Z198743178

>  <PlateID>
1198308-R-SPFL-15

>  <Well>
C10

>  <MW (desalted)>
147.126

>  <ClogP>
-0.765

>  <HBD>
1

>  <TPSA>
43.840

>  <RotBonds>
2

$$$$

            

 13 14  0  0  0  0            999 V2000
    1.4289   -1.6500    0.0000 C   0  0  0  0  0  0  0  0  0  0  0  0
    0.7145   -1.2375    0.0000 O   0  0  0  0  0  0  0  0  0  0  0  0
    0.7145   -0.4125    0.0000 C   0  0  0  0  0  0  0  0  0  0  0  0
    0.0000    0.0000    0.0000 C   0  0  0  0  0  0  0  0  0  0  0  0
    0.0000    0.8250    0.0000 C   0  0  0  0  0  0  0  0  0  0  0  0
    0.7145    1.2375    0.0000 C   0  0  0  0  0  0  0  0  0  0  0  0
    1.4289    0.8250    0.0000 C   0  0  0  0  0  0  0  0  0  0  0  0
    1.4289    0.0000    0.0000 C   0  0  0  0  0  0  0  0  0  0  0  0
    1.4289   -2.4750    0.0000 C   0  0  0  0  0  0  0  0  0  0  0  0
    2.0964   -2.9599    0.0000 C   0  0  0  0  0  0  0  0  0  0  0  0
    1.8414   -3.7445    0.0000 C   0  0  0  0  0  0  0  0  0  0  0  0
    1.0164   -3.7445    0.0000 C   0  0  0  0  0  0  0  0  0  0  0  0
    0.7615   -2.9599    0.0000 N   0  0  0  0  0  0  0  0  0  0  0  0
  1  2  1  0  0  0  0
  2  3  1  0  0  0  0
  3  4  2  0  0  0  0
  4  5  1  0  0  0  0
  5  6  2  0  0  0  0
  6  7  1  0  0  0  0
  7  8  2  0  0  0  0
  3  8  1  0  0  0  0
  1  9  1  0  0  0  0
  9 10  1  0  0  0  0
 10 11  1  0  0  0  0
 11 12  1  0  0  0  0
 12 13  1  0  0  0  0
  9 13  1  0  0  0  0
M  END
>  <Catalog ID>
Z285198378

>  <PlateID>
1198308-R-SPFL-15

>  <Well>
C11

>  <MW (desalted)>
177.243

>  <ClogP>
2.280

>  <HBD>
1

>  <TPSA>
21.260

>  <RotBonds>
3

$$$$

            

 10 10  0  0  0  0            999 V2000
    1.1270   -2.2334    0.0000 O   0  0  0  0  0  0  0  0  0  0  0  0
    1.1270   -1.4084    0.0000 C   0  0  0  0  0  0  0  0  0  0  0  0
    1.8414   -0.9959    0.0000 O   0  0  0  0  0  0  0  0  0  0  0  0
    0.4125   -0.9959    0.0000 C   0  0  0  0  0  0  0  0  0  0  0  0
    0.4125   -0.1709    0.0000 C   0  0  0  0  0  0  0  0  0  0  0  0
   -0.1709    0.4125    0.0000 C   0  0  0  0  0  0  0  0  0  0  0  0
    0.4125    0.9959    0.0000 C   0  0  0  0  0  0  0  0  0  0  0  0
   -0.1709    1.5792    0.0000 F   0  0  0  0  0  0  0  0  0  0  0  0
    0.9959    1.5792    0.0000 F   0  0  0  0  0  0  0  0  0  0  0  0
    0.9959    0.4125    0.0000 C   0  0  0  0  0  0  0  0  0  0  0  0
  1  2  1  0  0  0  0
  2  3  2  0  0  0  0
  2  4  1  0  0  0  0
  4  5  1  0  0  0  0
  5  6  1  0  0  0  0
  6  7  1  0  0  0  0
  7  8  1  0  0  0  0
  7  9  1  0  0  0  0
  7 10  1  0  0  0  0
  5 10  1  0  0  0  0
M  END
>  <Catalog ID>
Z1592690025

>  <PlateID>
1198308-R-SPFL-15

>  <Well>
D02

>  <MW (desalted)>
150.123

>  <ClogP>
0.724

>  <HBD>
1

>  <TPSA>
37.300

>  <RotBonds>
2

$$$$

            

 10 10  0  0  0  0            999 V2000
    0.0000    3.3000    0.0000 O   0  0  0  0  0  0  0  0  0  0  0  0
    0.0000    2.4750    0.0000 C   0  0  0  0  0  0  0  0  0  0  0  0
   -0.7145    2.0625    0.0000 O   0  0  0  0  0  0  0  0  0  0  0  0
    0.7145    2.0625    0.0000 C   0  0  0  0  0  0  0  0  0  0  0  0
    0.7145    1.2375    0.0000 C   0  0  0  0  0  0  0  0  0  0  0  0
    1.4289    0.8250    0.0000 C   0  0  0  0  0  0  0  0  0  0  0  0
    1.4289   -0.0000    0.0000 C   0  0  0  0  0  0  0  0  0  0  0  0
    0.7145   -0.4125    0.0000 C   0  0  0  0  0  0  0  0  0  0  0  0
    0.0000    0.0000    0.0000 O   0  0  0  0  0  0  0  0  0  0  0  0
    0.0000    0.8250    0.0000 C   0  0  0  0  0  0  0  0  0  0  0  0
  1  2  1  0  0  0  0
  2  3  2  0  0  0  0
  2  4  1  0  0  0  0
  4  5  1  0  0  0  0
  5  6  1  0  0  0  0
  6  7  1  0  0  0  0
  7  8  1  0  0  0  0
  8  9  1  0  0  0  0
  9 10  1  0  0  0  0
  5 10  1  0  0  0  0
M  END
>  <Catalog ID>
Z445215100

>  <PlateID>
1198308-R-SPFL-15

>  <Well>
D03

>  <MW (desalted)>
144.168

>  <ClogP>
0.057

>  <HBD>
1

>  <TPSA>
46.530

>  <RotBonds>
2

$$$$

            

 10 10  0  0  0  0            999 V2000
    1.2822    3.1768    0.0000 C   0  0  0  0  0  0  0  0  0  0  0  0
    1.2822    2.3518    0.0000 O   0  0  0  0  0  0  0  0  0  0  0  0
    0.5678    1.9393    0.0000 C   0  0  0  0  0  0  0  0  0  0  0  0
    0.5678    1.1143    0.0000 C   0  0  0  0  0  0  0  0  0  0  0  0
    1.2352    0.6294    0.0000 C   0  0  0  0  0  0  0  0  0  0  0  0
    0.9803   -0.1553    0.0000 S   0  0  0  0  0  0  0  0  0  0  0  0
    0.1553   -0.1553    0.0000 C   0  0  0  0  0  0  0  0  0  0  0  0
   -0.3297   -0.8227    0.0000 C   0  0  0  0  0  0  0  0  0  0  0  0
    0.0059   -1.5764    0.0000 N   0  0  0  0  0  0  0  0  0  0  0  0
   -0.0997    0.6294    0.0000 C   0  0  0  0  0  0  0  0  0  0  0  0
  1  2  1  0  0  0  0
  2  3  1  0  0  0  0
  3  4  1  0  0  0  0
  4  5  2  0  0  0  0
  5  6  1  0  0  0  0
  6  7  1  0  0  0  0
  7  8  1  0  0  0  0
  8  9  1  0  0  0  0
  7 10  2  0  0  0  0
  4 10  1  0  0  0  0
M  END
>  <Catalog ID>
Z1198171043

>  <PlateID>
1198308-R-SPFL-15

>  <Well>
D04

>  <MW (desalted)>
157.233

>  <ClogP>
0.538

>  <HBD>
1

>  <TPSA>
35.250

>  <RotBonds>
3

$$$$

            

 11 12  0  0  0  0            999 V2000
    0.2076   -1.8785    0.0000 O   0  0  0  0  0  0  0  0  0  0  0  0
    1.0146   -1.7070    0.0000 C   0  0  0  0  0  0  0  0  0  0  0  0
    1.5666   -2.3201    0.0000 O   0  0  0  0  0  0  0  0  0  0  0  0
    1.2695   -0.9224    0.0000 C   0  0  0  0  0  0  0  0  0  0  0  0
    0.7846   -0.2549    0.0000 C   0  0  0  0  0  0  0  0  0  0  0  0
    1.2695    0.4125    0.0000 C   0  0  0  0  0  0  0  0  0  0  0  0
    2.0542    0.1576    0.0000 N   0  0  0  0  0  0  0  0  0  0  0  0
    2.8388    0.4125    0.0000 C   0  0  0  0  0  0  0  0  0  0  0  0
    3.3237   -0.2549    0.0000 C   0  0  0  0  0  0  0  0  0  0  0  0
    2.8388   -0.9224    0.0000 S   0  0  0  0  0  0  0  0  0  0  0  0
    2.0542   -0.6674    0.0000 C   0  0  0  0  0  0  0  0  0  0  0  0
  1  2  1  0  0  0  0
  2  3  2  0  0  0  0
  2  4  1  0  0  0  0
  4  5  1  0  0  0  0
  5  6  2  0  0  0  0
  6  7  1  0  0  0  0
  7  8  1  0  0  0  0
  8  9  2  0  0  0  0
  9 10  1  0  0  0  0
 10 11  1  0  0  0  0
  4 11  2  0  0  0  0
  7 11  1  0  0  0  0
M  END
>  <Catalog ID>
Z1262529007

>  <PlateID>
1198308-R-SPFL-15

>  <Well>
D05

>  <MW (desalted)>
167.185

>  <ClogP>
2.168

>  <HBD>
1

>  <TPSA>
41.710

>  <RotBonds>
1

$$$$

            

 11 12  0  0  0  0            999 V2000
    1.1270   -2.5070    0.0000 C   0  0  0  0  0  0  0  0  0  0  0  0
    0.3020   -2.5070    0.0000 N   0  0  0  0  0  0  0  0  0  0  0  0
    0.0470   -1.7224    0.0000 N   0  0  0  0  0  0  0  0  0  0  0  0
    0.7145   -1.2375    0.0000 C   0  0  0  0  0  0  0  0  0  0  0  0
    1.3819   -1.7224    0.0000 N   0  0  0  0  0  0  0  0  0  0  0  0
    0.7145   -0.4125    0.0000 C   0  0  0  0  0  0  0  0  0  0  0  0
    0.0000    0.0000    0.0000 C   0  0  0  0  0  0  0  0  0  0  0  0
    0.0000    0.8250    0.0000 C   0  0  0  0  0  0  0  0  0  0  0  0
    0.7145    1.2375    0.0000 C   0  0  0  0  0  0  0  0  0  0  0  0
    1.4289    0.8250    0.0000 N   0  0  0  0  0  0  0  0  0  0  0  0
    1.4289   -0.0000    0.0000 C   0  0  0  0  0  0  0  0  0  0  0  0
  1  2  2  0  0  0  0
  2  3  1  0  0  0  0
  3  4  1  0  0  0  0
  4  5  2  0  0  0  0
  1  5  1  0  0  0  0
  4  6  1  0  0  0  0
  6  7  2  0  0  0  0
  7  8  1  0  0  0  0
  8  9  2  0  0  0  0
  9 10  1  0  0  0  0
 10 11  2  0  0  0  0
  6 11  1  0  0  0  0
M  END
>  <Catalog ID>
Z362569602

>  <PlateID>
1198308-R-SPFL-15

>  <Well>
D06

>  <MW (desalted)>
146.149

>  <ClogP>
0.449

>  <HBD>
1

>  <TPSA>
54.460

>  <RotBonds>
1

$$$$

            

 12 10  0  0  0  0            999 V2000
    0.0000    0.0000    0.0000 Cl  0  0  0  0  0  0  0  0  0  0  0  0
    2.0036    0.0000    0.0000 Cl  0  0  0  0  0  0  0  0  0  0  0  0
    0.0000   -1.6500    0.0000 N   0  0  0  0  0  0  0  0  0  0  0  0
    0.0000   -2.4750    0.0000 C   0  0  0  0  0  0  0  0  0  0  0  0
    0.7145   -2.8875    0.0000 C   0  0  0  0  0  0  0  0  0  0  0  0
    0.7145   -3.7125    0.0000 C   0  0  0  0  0  0  0  0  0  0  0  0
    0.0000   -4.1250    0.0000 C   0  0  0  0  0  0  0  0  0  0  0  0
   -0.7145   -3.7125    0.0000 N   0  0  0  0  0  0  0  0  0  0  0  0
   -0.7145   -2.8875    0.0000 C   0  0  0  0  0  0  0  0  0  0  0  0
   -0.0000   -4.9500    0.0000 C   0  0  0  0  0  0  0  0  0  0  0  0
    0.7145   -5.3625    0.0000 F   0  0  0  0  0  0  0  0  0  0  0  0
   -0.7145   -5.3625    0.0000 F   0  0  0  0  0  0  0  0  0  0  0  0
  3  4  1  0  0  0  0
  4  5  2  0  0  0  0
  5  6  1  0  0  0  0
  6  7  2  0  0  0  0
  7  8  1  0  0  0  0
  8  9  2  0  0  0  0
  4  9  1  0  0  0  0
  7 10  1  0  0  0  0
 10 11  1  0  0  0  0
 10 12  1  0  0  0  0
M  END
>  <Catalog ID>
Z3070369672

>  <PlateID>
1198308-R-SPFL-15

>  <Well>
D07

>  <MW (desalted)>
144.122

>  <ClogP>
0.513

>  <HBD>
1

>  <TPSA>
38.910

>  <RotBonds>
1

$$$$

            

 14 13  0  0  0  0            999 V2000
    0.0000    0.0000    0.0000 Cl  0  0  0  0  0  0  0  0  0  0  0  0
    2.0036    0.0000    0.0000 Cl  0  0  0  0  0  0  0  0  0  0  0  0
    0.9177   -1.6500    0.0000 C   0  0  0  0  0  0  0  0  0  0  0  0
    0.9177   -2.4750    0.0000 C   0  0  0  0  0  0  0  0  0  0  0  0
    1.6322   -2.8875    0.0000 C   0  0  0  0  0  0  0  0  0  0  0  0
    1.6322   -3.7125    0.0000 C   0  0  0  0  0  0  0  0  0  0  0  0
    0.9177   -4.1250    0.0000 C   0  0  0  0  0  0  0  0  0  0  0  0
    0.2033   -3.7125    0.0000 C   0  0  0  0  0  0  0  0  0  0  0  0
   -0.5814   -3.9674    0.0000 N   0  0  0  0  0  0  0  0  0  0  0  0
   -1.0663   -3.3000    0.0000 C   0  0  0  0  0  0  0  0  0  0  0  0
   -1.8913   -3.3000    0.0000 C   0  0  0  0  0  0  0  0  0  0  0  0
   -2.3038   -4.0145    0.0000 N   0  0  0  0  0  0  0  0  0  0  0  0
   -0.5814   -2.6326    0.0000 C   0  0  0  0  0  0  0  0  0  0  0  0
    0.2033   -2.8875    0.0000 N   0  0  0  0  0  0  0  0  0  0  0  0
  3  4  1  0  0  0  0
  4  5  2  0  0  0  0
  5  6  1  0  0  0  0
  6  7  2  0  0  0  0
  7  8  1  0  0  0  0
  8  9  2  0  0  0  0
  9 10  1  0  0  0  0
 10 11  1  0  0  0  0
 11 12  1  0  0  0  0
 10 13  2  0  0  0  0
 13 14  1  0  0  0  0
  4 14  1  0  0  0  0
  8 14  1  0  0  0  0
M  END
>  <Catalog ID>
Z1149820518

>  <PlateID>
1198308-R-SPFL-15

>  <Well>
D08

>  <MW (desalted)>
161.204

>  <ClogP>
0.857

>  <HBD>
1

>  <TPSA>
43.320

>  <RotBonds>
1

$$$$

            

 12 13  0  0  0  0            999 V2000
   -1.4087   -1.4124    0.0000 N   0  0  0  0  0  0  0  0  0  0  0  0
   -0.5837   -1.4124    0.0000 C   0  0  0  0  0  0  0  0  0  0  0  0
   -0.1712   -0.6979    0.0000 C   0  0  0  0  0  0  0  0  0  0  0  0
    0.6538   -0.6979    0.0000 C   0  0  0  0  0  0  0  0  0  0  0  0
    1.1387   -0.0305    0.0000 C   0  0  0  0  0  0  0  0  0  0  0  0
    1.9233   -0.2854    0.0000 N   0  0  0  0  0  0  0  0  0  0  0  0
    2.6378    0.1271    0.0000 C   0  0  0  0  0  0  0  0  0  0  0  0
    3.3523   -0.2854    0.0000 C   0  0  0  0  0  0  0  0  0  0  0  0
    3.3523   -1.1104    0.0000 C   0  0  0  0  0  0  0  0  0  0  0  0
    2.6378   -1.5229    0.0000 C   0  0  0  0  0  0  0  0  0  0  0  0
    1.9233   -1.1104    0.0000 C   0  0  0  0  0  0  0  0  0  0  0  0
    1.1387   -1.3654    0.0000 N   0  0  0  0  0  0  0  0  0  0  0  0
  1  2  1  0  0  0  0
  2  3  1  0  0  0  0
  3  4  1  0  0  0  0
  4  5  2  0  0  0  0
  5  6  1  0  0  0  0
  6  7  1  0  0  0  0
  7  8  1  0  0  0  0
  8  9  1  0  0  0  0
  9 10  1  0  0  0  0
 10 11  1  0  0  0  0
  6 11  1  0  0  0  0
 11 12  2  0  0  0  0
  4 12  1  0  0  0  0
M  END
>  <Catalog ID>
Z317766006

>  <PlateID>
1198308-R-SPFL-15

>  <Well>
D09

>  <MW (desalted)>
165.236

>  <ClogP>
-0.109

>  <HBD>
1

>  <TPSA>
43.840

>  <RotBonds>
2

$$$$

            

 11 12  0  0  0  0            999 V2000
   -0.4529   -0.9694    0.0000 O   0  0  0  0  0  0  0  0  0  0  0  0
   -0.0404   -0.2549    0.0000 C   0  0  0  0  0  0  0  0  0  0  0  0
   -0.4529    0.4595    0.0000 O   0  0  0  0  0  0  0  0  0  0  0  0
    0.7846   -0.2549    0.0000 C   0  0  0  0  0  0  0  0  0  0  0  0
    1.2695    0.4125    0.0000 C   0  0  0  0  0  0  0  0  0  0  0  0
    2.0542    0.1576    0.0000 N   0  0  0  0  0  0  0  0  0  0  0  0
    2.8388    0.4125    0.0000 C   0  0  0  0  0  0  0  0  0  0  0  0
    3.3237   -0.2549    0.0000 C   0  0  0  0  0  0  0  0  0  0  0  0
    2.8388   -0.9224    0.0000 S   0  0  0  0  0  0  0  0  0  0  0  0
    2.0542   -0.6674    0.0000 C   0  0  0  0  0  0  0  0  0  0  0  0
    1.2695   -0.9224    0.0000 N   0  0  0  0  0  0  0  0  0  0  0  0
  1  2  1  0  0  0  0
  2  3  2  0  0  0  0
  2  4  1  0  0  0  0
  4  5  2  0  0  0  0
  5  6  1  0  0  0  0
  6  7  1  0  0  0  0
  7  8  1  0  0  0  0
  8  9  1  0  0  0  0
  9 10  1  0  0  0  0
  6 10  1  0  0  0  0
 10 11  2  0  0  0  0
  4 11  1  0  0  0  0
M  END
>  <Catalog ID>
Z1216816344

>  <PlateID>
1198308-R-SPFL-15

>  <Well>
D10

>  <MW (desalted)>
170.189

>  <ClogP>
0.932

>  <HBD>
1

>  <TPSA>
55.120

>  <RotBonds>
1

$$$$

            

 15 15  0  0  0  0            999 V2000
    0.0000    0.0000    0.0000 Cl  0  0  0  0  0  0  0  0  0  0  0  0
    4.0291    0.0149    0.0000 N   0  0  0  0  0  0  0  0  0  0  0  0
    3.3147   -0.3976    0.0000 C   0  0  0  0  0  0  0  0  0  0  0  0
    2.6002    0.0149    0.0000 C   0  0  0  0  0  0  0  0  0  0  0  0
    2.6002    0.8399    0.0000 C   0  0  0  0  0  0  0  0  0  0  0  0
    1.8857    1.2524    0.0000 C   0  0  0  0  0  0  0  0  0  0  0  0
    1.8857    2.0774    0.0000 C   0  0  0  0  0  0  0  0  0  0  0  0
    2.6002    2.4899    0.0000 C   0  0  0  0  0  0  0  0  0  0  0  0
    3.3147    2.0774    0.0000 C   0  0  0  0  0  0  0  0  0  0  0  0
    3.3147    1.2524    0.0000 C   0  0  0  0  0  0  0  0  0  0  0  0
    3.3147   -1.2226    0.0000 C   0  0  0  0  0  0  0  0  0  0  0  0
    3.9821   -1.7075    0.0000 N   0  0  0  0  0  0  0  0  0  0  0  0
    3.7272   -2.4921    0.0000 C   0  0  0  0  0  0  0  0  0  0  0  0
    2.9022   -2.4921    0.0000 O   0  0  0  0  0  0  0  0  0  0  0  0
    2.6472   -1.7075    0.0000 N   0  0  0  0  0  0  0  0  0  0  0  0
  2  3  1  0  0  0  0
  3  4  1  0  0  0  0
  4  5  1  0  0  0  0
  5  6  2  0  0  0  0
  6  7  1  0  0  0  0
  7  8  2  0  0  0  0
  8  9  1  0  0  0  0
  9 10  2  0  0  0  0
  5 10  1  0  0  0  0
  3 11  1  0  0  0  0
 11 12  1  0  0  0  0
 12 13  2  0  0  0  0
 13 14  1  0  0  0  0
 14 15  1  0  0  0  0
 11 15  2  0  0  0  0
M  END
>  <Catalog ID>
Z2468304310

>  <PlateID>
1198308-R-SPFL-15

>  <Well>
D11

>  <MW (desalted)>
189.214

>  <ClogP>
0.323

>  <HBD>
1

>  <TPSA>
64.940

>  <RotBonds>
3

$$$$

            

 15 16  0  0  0  0            999 V2000
    1.4289    0.0000    0.0000 N   0  0  0  0  0  0  0  0  0  0  0  0
    2.1434   -0.4125    0.0000 C   0  0  0  0  0  0  0  0  0  0  0  0
    2.1434   -1.2375    0.0000 C   0  0  0  0  0  0  0  0  0  0  0  0
    2.8579   -1.6500    0.0000 C   0  0  0  0  0  0  0  0  0  0  0  0
    2.8579   -2.4750    0.0000 C   0  0  0  0  0  0  0  0  0  0  0  0
    2.1434   -2.8875    0.0000 C   0  0  0  0  0  0  0  0  0  0  0  0
    2.1434   -3.7125    0.0000 O   0  0  0  0  0  0  0  0  0  0  0  0
    1.4289   -4.1250    0.0000 C   0  0  0  0  0  0  0  0  0  0  0  0
    1.4289   -4.9500    0.0000 C   0  0  0  0  0  0  0  0  0  0  0  0
    0.7145   -5.3625    0.0000 C   0  0  0  0  0  0  0  0  0  0  0  0
   -0.0000   -4.9500    0.0000 C   0  0  0  0  0  0  0  0  0  0  0  0
    0.0000   -4.1250    0.0000 C   0  0  0  0  0  0  0  0  0  0  0  0
    0.7145   -3.7125    0.0000 C   0  0  0  0  0  0  0  0  0  0  0  0
    1.4289   -2.4750    0.0000 N   0  0  0  0  0  0  0  0  0  0  0  0
    1.4289   -1.6500    0.0000 C   0  0  0  0  0  0  0  0  0  0  0  0
  1  2  1  0  0  0  0
  2  3  1  0  0  0  0
  3  4  2  0  0  0  0
  4  5  1  0  0  0  0
  5  6  2  0  0  0  0
  6  7  1  0  0  0  0
  7  8  1  0  0  0  0
  8  9  2  0  0  0  0
  9 10  1  0  0  0  0
 10 11  2  0  0  0  0
 11 12  1  0  0  0  0
 12 13  2  0  0  0  0
  8 13  1  0  0  0  0
  6 14  1  0  0  0  0
 14 15  2  0  0  0  0
  3 15  1  0  0  0  0
M  END
>  <Catalog ID>
Z240084234

>  <PlateID>
1198308-R-SPFL-15

>  <Well>
E02

>  <MW (desalted)>
200.236

>  <ClogP>
1.695

>  <HBD>
1

>  <TPSA>
48.140

>  <RotBonds>
3

$$$$

            

 10 11  0  0  0  0            999 V2000
   -0.0404   -0.2549    0.0000 C   0  0  0  0  0  0  0  0  0  0  0  0
    0.7846   -0.2549    0.0000 N   0  0  0  0  0  0  0  0  0  0  0  0
    1.2695    0.4125    0.0000 N   0  0  0  0  0  0  0  0  0  0  0  0
    2.0542    0.1576    0.0000 C   0  0  0  0  0  0  0  0  0  0  0  0
    2.8388    0.4125    0.0000 C   0  0  0  0  0  0  0  0  0  0  0  0
    3.3237   -0.2549    0.0000 S   0  0  0  0  0  0  0  0  0  0  0  0
    2.8388   -0.9224    0.0000 C   0  0  0  0  0  0  0  0  0  0  0  0
    2.0542   -0.6674    0.0000 C   0  0  0  0  0  0  0  0  0  0  0  0
    1.2695   -0.9224    0.0000 C   0  0  0  0  0  0  0  0  0  0  0  0
    1.0146   -1.7070    0.0000 N   0  0  0  0  0  0  0  0  0  0  0  0
  1  2  1  0  0  0  0
  2  3  1  0  0  0  0
  3  4  2  0  0  0  0
  4  5  1  0  0  0  0
  5  6  1  0  0  0  0
  6  7  1  0  0  0  0
  7  8  1  0  0  0  0
  4  8  1  0  0  0  0
  8  9  2  0  0  0  0
  2  9  1  0  0  0  0
  9 10  1  0  0  0  0
M  END
>  <Catalog ID>
Z1198369274

>  <PlateID>
1198308-R-SPFL-15

>  <Well>
E03

>  <MW (desalted)>
155.221

>  <ClogP>
-0.564

>  <HBD>
1

>  <TPSA>
43.840

>  <RotBonds>
0

$$$$

            

 14 15  0  0  0  0            999 V2000
    0.7145   -0.4125    0.0000 O   0  0  0  0  0  0  0  0  0  0  0  0
    0.7145   -1.2375    0.0000 C   0  0  0  0  0  0  0  0  0  0  0  0
    1.4289   -1.6500    0.0000 C   0  0  0  0  0  0  0  0  0  0  0  0
    1.4289   -2.4750    0.0000 C   0  0  0  0  0  0  0  0  0  0  0  0
    0.7145   -2.8875    0.0000 N   0  0  0  0  0  0  0  0  0  0  0  0
    0.0000   -2.4750    0.0000 C   0  0  0  0  0  0  0  0  0  0  0  0
    0.0000   -1.6500    0.0000 C   0  0  0  0  0  0  0  0  0  0  0  0
    0.7145   -3.7125    0.0000 C   0  0  0  0  0  0  0  0  0  0  0  0
    1.4289   -4.1250    0.0000 C   0  0  0  0  0  0  0  0  0  0  0  0
    1.4289   -4.9500    0.0000 C   0  0  0  0  0  0  0  0  0  0  0  0
    0.7145   -5.3625    0.0000 C   0  0  0  0  0  0  0  0  0  0  0  0
    0.0000   -4.9500    0.0000 C   0  0  0  0  0  0  0  0  0  0  0  0
   -0.7145   -5.3625    0.0000 Cl  0  0  0  0  0  0  0  0  0  0  0  0
    0.0000   -4.1250    0.0000 C   0  0  0  0  0  0  0  0  0  0  0  0
  1  2  1  0  0  0  0
  2  3  1  0  0  0  0
  3  4  1  0  0  0  0
  4  5  1  0  0  0  0
  5  6  1  0  0  0  0
  6  7  1  0  0  0  0
  2  7  1  0  0  0  0
  5  8  1  0  0  0  0
  8  9  2  0  0  0  0
  9 10  1  0  0  0  0
 10 11  2  0  0  0  0
 11 12  1  0  0  0  0
 12 13  1  0  0  0  0
 12 14  2  0  0  0  0
  8 14  1  0  0  0  0
M  END
>  <Catalog ID>
Z1269125384

>  <PlateID>
1198308-R-SPFL-15

>  <Well>
E04

>  <MW (desalted)>
211.688

>  <ClogP>
1.777

>  <HBD>
1

>  <TPSA>
23.470

>  <RotBonds>
1

$$$$

            

 15 15  0  0  0  0            999 V2000
    0.0000    0.0000    0.0000 Cl  0  0  0  0  0  0  0  0  0  0  0  0
    5.9295    2.3277    0.0000 C   0  0  0  0  0  0  0  0  0  0  0  0
    5.2150    1.9152    0.0000 O   0  0  0  0  0  0  0  0  0  0  0  0
    5.2150    1.0902    0.0000 C   0  0  0  0  0  0  0  0  0  0  0  0
    5.9295    0.6777    0.0000 C   0  0  0  0  0  0  0  0  0  0  0  0
    5.9295   -0.1473    0.0000 C   0  0  0  0  0  0  0  0  0  0  0  0
    5.2150   -0.5598    0.0000 C   0  0  0  0  0  0  0  0  0  0  0  0
    4.5006   -0.1473    0.0000 C   0  0  0  0  0  0  0  0  0  0  0  0
    4.5006    0.6777    0.0000 C   0  0  0  0  0  0  0  0  0  0  0  0
    3.7861   -0.5598    0.0000 C   0  0  0  0  0  0  0  0  0  0  0  0
    3.7861   -1.3848    0.0000 C   0  0  0  0  0  0  0  0  0  0  0  0
    3.0716   -1.7973    0.0000 C   0  0  0  0  0  0  0  0  0  0  0  0
    2.3571   -1.3848    0.0000 N   0  0  0  0  0  0  0  0  0  0  0  0
    2.3571   -0.5598    0.0000 C   0  0  0  0  0  0  0  0  0  0  0  0
    3.0716   -0.1473    0.0000 C   0  0  0  0  0  0  0  0  0  0  0  0
  2  3  1  0  0  0  0
  3  4  1  0  0  0  0
  4  5  2  0  0  0  0
  5  6  1  0  0  0  0
  6  7  2  0  0  0  0
  7  8  1  0  0  0  0
  8  9  2  0  0  0  0
  4  9  1  0  0  0  0
  8 10  1  0  0  0  0
 10 11  1  0  0  0  0
 11 12  1  0  0  0  0
 12 13  1  0  0  0  0
 13 14  1  0  0  0  0
 14 15  1  0  0  0  0
 10 15  1  0  0  0  0
M  END
>  <Catalog ID>
Z1891774684

>  <PlateID>
1198308-R-SPFL-15

>  <Well>
E05

>  <MW (desalted)>
191.269

>  <ClogP>
2.262

>  <HBD>
1

>  <TPSA>
21.260

>  <RotBonds>
2

$$$$

            

 14 14  0  0  0  0            999 V2000
    0.0000    0.0000    0.0000 Cl  0  0  0  0  0  0  0  0  0  0  0  0
    2.4823   -1.4279    0.0000 O   0  0  0  0  0  0  0  0  0  0  0  0
    2.4823   -0.6029    0.0000 C   0  0  0  0  0  0  0  0  0  0  0  0
    1.7679   -0.1904    0.0000 O   0  0  0  0  0  0  0  0  0  0  0  0
    3.1968   -0.1904    0.0000 C   0  0  0  0  0  0  0  0  0  0  0  0
    3.1968    0.6346    0.0000 C   0  0  0  0  0  0  0  0  0  0  0  0
    3.9113    1.0471    0.0000 C   0  0  0  0  0  0  0  0  0  0  0  0
    4.6257    0.6346    0.0000 C   0  0  0  0  0  0  0  0  0  0  0  0
    5.3402    1.0471    0.0000 C   0  0  0  0  0  0  0  0  0  0  0  0
    6.0547    0.6346    0.0000 C   0  0  0  0  0  0  0  0  0  0  0  0
    6.0547   -0.1904    0.0000 C   0  0  0  0  0  0  0  0  0  0  0  0
    5.3402   -0.6029    0.0000 C   0  0  0  0  0  0  0  0  0  0  0  0
    4.6257   -0.1904    0.0000 C   0  0  0  0  0  0  0  0  0  0  0  0
    3.9113   -0.6029    0.0000 N   0  0  0  0  0  0  0  0  0  0  0  0
  2  3  1  0  0  0  0
  3  4  2  0  0  0  0
  3  5  1  0  0  0  0
  5  6  2  0  0  0  0
  6  7  1  0  0  0  0
  7  8  2  0  0  0  0
  8  9  1  0  0  0  0
  9 10  1  0  0  0  0
 10 11  1  0  0  0  0
 11 12  1  0  0  0  0
 12 13  1  0  0  0  0
  8 13  1  0  0  0  0
 13 14  2  0  0  0  0
  5 14  1  0  0  0  0
M  END
>  <Catalog ID>
Z3052096317

>  <PlateID>
1198308-R-SPFL-15

>  <Well>
E06

>  <MW (desalted)>
177.200

>  <ClogP>
2.571

>  <HBD>
1

>  <TPSA>
50.190

>  <RotBonds>
1

$$$$

            

 11 12  0  0  0  0            999 V2000
   -0.1712   -0.6979    0.0000 C   0  0  0  0  0  0  0  0  0  0  0  0
    0.6538   -0.6979    0.0000 C   0  0  0  0  0  0  0  0  0  0  0  0
    1.1387   -0.0305    0.0000 N   0  0  0  0  0  0  0  0  0  0  0  0
    1.9233   -0.2854    0.0000 C   0  0  0  0  0  0  0  0  0  0  0  0
    2.6378    0.1271    0.0000 N   0  0  0  0  0  0  0  0  0  0  0  0
    3.3523   -0.2854    0.0000 C   0  0  0  0  0  0  0  0  0  0  0  0
    3.3523   -1.1104    0.0000 C   0  0  0  0  0  0  0  0  0  0  0  0
    2.6378   -1.5229    0.0000 C   0  0  0  0  0  0  0  0  0  0  0  0
    1.9233   -1.1104    0.0000 N   0  0  0  0  0  0  0  0  0  0  0  0
    1.1387   -1.3654    0.0000 C   0  0  0  0  0  0  0  0  0  0  0  0
    0.8838   -2.1500    0.0000 C   0  0  0  0  0  0  0  0  0  0  0  0
  1  2  1  0  0  0  0
  2  3  1  0  0  0  0
  3  4  2  0  0  0  0
  4  5  1  0  0  0  0
  5  6  2  0  0  0  0
  6  7  1  0  0  0  0
  7  8  2  0  0  0  0
  8  9  1  0  0  0  0
  4  9  1  0  0  0  0
  9 10  1  0  0  0  0
  2 10  2  0  0  0  0
 10 11  1  0  0  0  0
M  END
>  <Catalog ID>
Z666291188

>  <PlateID>
1198308-R-SPFL-15

>  <Well>
E07

>  <MW (desalted)>
147.177

>  <ClogP>
0.785

>  <HBD>
0

>  <TPSA>
30.190

>  <RotBonds>
0

$$$$

            

 13 12  0  0  0  0            999 V2000
    0.0000    0.0000    0.0000 Cl  0  0  0  0  0  0  0  0  0  0  0  0
    2.3571    2.1656    0.0000 C   0  0  0  0  0  0  0  0  0  0  0  0
    3.0716    1.7531    0.0000 N   0  0  0  0  0  0  0  0  0  0  0  0
    3.0716    0.9281    0.0000 C   0  0  0  0  0  0  0  0  0  0  0  0
    2.3571    0.5156    0.0000 O   0  0  0  0  0  0  0  0  0  0  0  0
    3.7861    0.5156    0.0000 C   0  0  0  0  0  0  0  0  0  0  0  0
    4.5006    0.9281    0.0000 N   0  0  0  0  0  0  0  0  0  0  0  0
    3.7861   -0.3094    0.0000 C   0  0  0  0  0  0  0  0  0  0  0  0
    4.5006   -0.7219    0.0000 C   0  0  0  0  0  0  0  0  0  0  0  0
    4.5006   -1.5469    0.0000 C   0  0  0  0  0  0  0  0  0  0  0  0
    3.7861   -1.9594    0.0000 C   0  0  0  0  0  0  0  0  0  0  0  0
    3.0716   -1.5469    0.0000 C   0  0  0  0  0  0  0  0  0  0  0  0
    3.0716   -0.7219    0.0000 C   0  0  0  0  0  0  0  0  0  0  0  0
  2  3  1  0  0  0  0
  3  4  1  0  0  0  0
  4  5  2  0  0  0  0
  4  6  1  0  0  0  0
  6  7  1  0  0  0  0
  6  8  1  0  0  0  0
  8  9  2  0  0  0  0
  9 10  1  0  0  0  0
 10 11  2  0  0  0  0
 11 12  1  0  0  0  0
 12 13  2  0  0  0  0
  8 13  1  0  0  0  0
M  END
>  <Catalog ID>
Z594038166

>  <PlateID>
1198308-R-SPFL-15

>  <Well>
E08

>  <MW (desalted)>
164.204

>  <ClogP>
0.008

>  <HBD>
2

>  <TPSA>
55.120

>  <RotBonds>
2

$$$$

            

 15 15  0  0  0  0            999 V2000
    0.0000    0.0000    0.0000 Cl  0  0  0  0  0  0  0  0  0  0  0  0
    2.3571    3.2560    0.0000 N   0  0  0  0  0  0  0  0  0  0  0  0
    2.3571    2.4310    0.0000 C   0  0  0  0  0  0  0  0  0  0  0  0
    3.0716    2.0185    0.0000 C   0  0  0  0  0  0  0  0  0  0  0  0
    3.0716    1.1935    0.0000 C   0  0  0  0  0  0  0  0  0  0  0  0
    3.7861    0.7810    0.0000 C   0  0  0  0  0  0  0  0  0  0  0  0
    3.7861   -0.0440    0.0000 C   0  0  0  0  0  0  0  0  0  0  0  0
    3.0716   -0.4565    0.0000 C   0  0  0  0  0  0  0  0  0  0  0  0
    2.3571   -0.0440    0.0000 C   0  0  0  0  0  0  0  0  0  0  0  0
    2.3571    0.7810    0.0000 C   0  0  0  0  0  0  0  0  0  0  0  0
    3.0716   -1.2815    0.0000 N   0  0  0  0  0  0  0  0  0  0  0  0
    3.7391   -1.7664    0.0000 C   0  0  0  0  0  0  0  0  0  0  0  0
    3.4841   -2.5510    0.0000 C   0  0  0  0  0  0  0  0  0  0  0  0
    2.6591   -2.5510    0.0000 C   0  0  0  0  0  0  0  0  0  0  0  0
    2.4042   -1.7664    0.0000 N   0  0  0  0  0  0  0  0  0  0  0  0
  2  3  1  0  0  0  0
  3  4  1  0  0  0  0
  4  5  1  0  0  0  0
  5  6  2  0  0  0  0
  6  7  1  0  0  0  0
  7  8  2  0  0  0  0
  8  9  1  0  0  0  0
  9 10  2  0  0  0  0
  5 10  1  0  0  0  0
  8 11  1  0  0  0  0
 11 12  1  0  0  0  0
 12 13  2  0  0  0  0
 13 14  1  0  0  0  0
 14 15  2  0  0  0  0
 11 15  1  0  0  0  0
M  END
>  <Catalog ID>
Z3073155776

>  <PlateID>
1198308-R-SPFL-15

>  <Well>
E09

>  <MW (desalted)>
187.241

>  <ClogP>
1.487

>  <HBD>
1

>  <TPSA>
43.840

>  <RotBonds>
3

$$$$

            

 11 11  0  0  0  0            999 V2000
    1.2822    2.3518    0.0000 C   0  0  0  0  0  0  0  0  0  0  0  0
    0.5678    1.9393    0.0000 C   0  0  0  0  0  0  0  0  0  0  0  0
   -0.1467    2.3518    0.0000 C   0  0  0  0  0  0  0  0  0  0  0  0
    0.5678    1.1143    0.0000 C   0  0  0  0  0  0  0  0  0  0  0  0
    1.2352    0.6294    0.0000 C   0  0  0  0  0  0  0  0  0  0  0  0
    0.9803   -0.1553    0.0000 C   0  0  0  0  0  0  0  0  0  0  0  0
    0.1553   -0.1553    0.0000 O   0  0  0  0  0  0  0  0  0  0  0  0
   -0.0997    0.6294    0.0000 C   0  0  0  0  0  0  0  0  0  0  0  0
   -0.8843    0.8843    0.0000 C   0  0  0  0  0  0  0  0  0  0  0  0
   -1.4974    0.3323    0.0000 O   0  0  0  0  0  0  0  0  0  0  0  0
   -1.0558    1.6913    0.0000 O   0  0  0  0  0  0  0  0  0  0  0  0
  1  2  1  0  0  0  0
  2  3  1  0  0  0  0
  2  4  1  0  0  0  0
  4  5  1  0  0  0  0
  5  6  2  0  0  0  0
  6  7  1  0  0  0  0
  7  8  1  0  0  0  0
  4  8  2  0  0  0  0
  8  9  1  0  0  0  0
  9 10  2  0  0  0  0
  9 11  1  0  0  0  0
M  END
>  <Catalog ID>
Z1815156707

>  <PlateID>
1198308-R-SPFL-15

>  <Well>
E10

>  <MW (desalted)>
154.163

>  <ClogP>
1.388

>  <HBD>
1

>  <TPSA>
50.440

>  <RotBonds>
2

$$$$

            

 11 13  0  0  0  0            999 V2000
    1.5992   -1.7307    0.0000 C   0  0  0  0  0  0  0  0  0  0  0  0
    0.7742   -1.7307    0.0000 C   0  0  0  0  0  0  0  0  0  0  0  0
    1.1867   -1.0162    0.0000 C   0  0  0  0  0  0  0  0  0  0  0  0
    1.1867   -0.1912    0.0000 C   0  0  0  0  0  0  0  0  0  0  0  0
    0.5193    0.2937    0.0000 N   0  0  0  0  0  0  0  0  0  0  0  0
    0.7742    1.0783    0.0000 N   0  0  0  0  0  0  0  0  0  0  0  0
    1.5992    1.0783    0.0000 C   0  0  0  0  0  0  0  0  0  0  0  0
    1.8542    0.2937    0.0000 N   0  0  0  0  0  0  0  0  0  0  0  0
    2.6388    0.0387    0.0000 C   0  0  0  0  0  0  0  0  0  0  0  0
    3.4458    0.2103    0.0000 C   0  0  0  0  0  0  0  0  0  0  0  0
    3.1908   -0.5744    0.0000 C   0  0  0  0  0  0  0  0  0  0  0  0
  1  2  1  0  0  0  0
  2  3  1  0  0  0  0
  1  3  1  0  0  0  0
  3  4  1  0  0  0  0
  4  5  2  0  0  0  0
  5  6  1  0  0  0  0
  6  7  2  0  0  0  0
  7  8  1  0  0  0  0
  4  8  1  0  0  0  0
  8  9  1  0  0  0  0
  9 10  1  0  0  0  0
 10 11  1  0  0  0  0
  9 11  1  0  0  0  0
M  END
>  <Catalog ID>
Z1492981479

>  <PlateID>
1198308-R-SPFL-15

>  <Well>
E11

>  <MW (desalted)>
149.193

>  <ClogP>
0.216

>  <HBD>
0

>  <TPSA>
30.710

>  <RotBonds>
2

$$$$

            

 13 14  0  0  0  0            999 V2000
    0.8838   -2.1500    0.0000 C   0  0  0  0  0  0  0  0  0  0  0  0
    1.1387   -1.3654    0.0000 C   0  0  0  0  0  0  0  0  0  0  0  0
    0.6538   -0.6979    0.0000 C   0  0  0  0  0  0  0  0  0  0  0  0
   -0.1712   -0.6979    0.0000 C   0  0  0  0  0  0  0  0  0  0  0  0
   -0.5837   -1.4124    0.0000 N   0  0  0  0  0  0  0  0  0  0  0  0
    1.1387   -0.0305    0.0000 N   0  0  0  0  0  0  0  0  0  0  0  0
    0.8838    0.7541    0.0000 C   0  0  0  0  0  0  0  0  0  0  0  0
    1.9233   -0.2854    0.0000 C   0  0  0  0  0  0  0  0  0  0  0  0
    2.6378    0.1271    0.0000 C   0  0  0  0  0  0  0  0  0  0  0  0
    3.3523   -0.2854    0.0000 C   0  0  0  0  0  0  0  0  0  0  0  0
    3.3523   -1.1104    0.0000 C   0  0  0  0  0  0  0  0  0  0  0  0
    2.6378   -1.5229    0.0000 C   0  0  0  0  0  0  0  0  0  0  0  0
    1.9233   -1.1104    0.0000 C   0  0  0  0  0  0  0  0  0  0  0  0
  1  2  1  0  0  0  0
  2  3  2  0  0  0  0
  3  4  1  0  0  0  0
  4  5  1  0  0  0  0
  3  6  1  0  0  0  0
  6  7  1  0  0  0  0
  6  8  1  0  0  0  0
  8  9  2  0  0  0  0
  9 10  1  0  0  0  0
 10 11  2  0  0  0  0
 11 12  1  0  0  0  0
 12 13  2  0  0  0  0
  2 13  1  0  0  0  0
  8 13  1  0  0  0  0
M  END
>  <Catalog ID>
Z1262672502

>  <PlateID>
1198308-R-SPFL-15

>  <Well>
F02

>  <MW (desalted)>
174.242

>  <ClogP>
1.999

>  <HBD>
1

>  <TPSA>
30.950

>  <RotBonds>
1

$$$$

            

 11 12  0  0  0  0            999 V2000
    1.2564   -0.1802    0.0000 C   0  0  0  0  0  0  0  0  0  0  0  0
    1.2564   -1.0052    0.0000 C   0  0  0  0  0  0  0  0  0  0  0  0
    1.9239   -1.4901    0.0000 C   0  0  0  0  0  0  0  0  0  0  0  0
    1.6689   -2.2748    0.0000 C   0  0  0  0  0  0  0  0  0  0  0  0
    0.8439   -2.2748    0.0000 N   0  0  0  0  0  0  0  0  0  0  0  0
    0.5890   -1.4901    0.0000 O   0  0  0  0  0  0  0  0  0  0  0  0
    2.1538   -2.9422    0.0000 C   0  0  0  0  0  0  0  0  0  0  0  0
    2.9788   -2.9422    0.0000 C   0  0  0  0  0  0  0  0  0  0  0  0
    3.2338   -3.7268    0.0000 C   0  0  0  0  0  0  0  0  0  0  0  0
    2.5663   -4.2117    0.0000 C   0  0  0  0  0  0  0  0  0  0  0  0
    1.8989   -3.7268    0.0000 N   0  0  0  0  0  0  0  0  0  0  0  0
  1  2  1  0  0  0  0
  2  3  2  0  0  0  0
  3  4  1  0  0  0  0
  4  5  2  0  0  0  0
  5  6  1  0  0  0  0
  2  6  1  0  0  0  0
  4  7  1  0  0  0  0
  7  8  1  0  0  0  0
  8  9  1  0  0  0  0
  9 10  1  0  0  0  0
 10 11  1  0  0  0  0
  7 11  1  0  0  0  0
M  END
>  <Catalog ID>
Z300087846

>  <PlateID>
1198308-R-SPFL-15

>  <Well>
F03

>  <MW (desalted)>
152.194

>  <ClogP>
0.182

>  <HBD>
1

>  <TPSA>
38.060

>  <RotBonds>
1

$$$$

            

 13 14  0  0  0  0            999 V2000
    1.4289   -0.0000    0.0000 O   0  0  0  0  0  0  0  0  0  0  0  0
    0.7145   -0.4125    0.0000 C   0  0  0  0  0  0  0  0  0  0  0  0
    0.7145   -1.2375    0.0000 C   0  0  0  0  0  0  0  0  0  0  0  0
    1.3819   -1.7224    0.0000 C   0  0  0  0  0  0  0  0  0  0  0  0
    1.1270   -2.5070    0.0000 C   0  0  0  0  0  0  0  0  0  0  0  0
    0.3020   -2.5070    0.0000 N   0  0  0  0  0  0  0  0  0  0  0  0
    0.0470   -1.7224    0.0000 N   0  0  0  0  0  0  0  0  0  0  0  0
   -0.1830   -3.1745    0.0000 C   0  0  0  0  0  0  0  0  0  0  0  0
    0.1526   -3.9282    0.0000 C   0  0  0  0  0  0  0  0  0  0  0  0
   -0.3323   -4.5956    0.0000 C   0  0  0  0  0  0  0  0  0  0  0  0
   -1.1528   -4.5094    0.0000 C   0  0  0  0  0  0  0  0  0  0  0  0
   -1.4884   -3.7557    0.0000 C   0  0  0  0  0  0  0  0  0  0  0  0
   -1.0034   -3.0882    0.0000 C   0  0  0  0  0  0  0  0  0  0  0  0
  1  2  1  0  0  0  0
  2  3  1  0  0  0  0
  3  4  1  0  0  0  0
  4  5  2  0  0  0  0
  5  6  1  0  0  0  0
  6  7  1  0  0  0  0
  3  7  2  0  0  0  0
  6  8  1  0  0  0  0
  8  9  2  0  0  0  0
  9 10  1  0  0  0  0
 10 11  2  0  0  0  0
 11 12  1  0  0  0  0
 12 13  2  0  0  0  0
  8 13  1  0  0  0  0
M  END
>  <Catalog ID>
Z951472098

>  <PlateID>
1198308-R-SPFL-15

>  <Well>
F04

>  <MW (desalted)>
174.199

>  <ClogP>
1.158

>  <HBD>
1

>  <TPSA>
38.050

>  <RotBonds>
2

$$$$

            

 13 12  0  0  0  0            999 V2000
    0.0000    0.0000    0.0000 Cl  0  0  0  0  0  0  0  0  0  0  0  0
    5.3402    1.8906    0.0000 N   0  0  0  0  0  0  0  0  0  0  0  0
    4.6257    1.4781    0.0000 C   0  0  0  0  0  0  0  0  0  0  0  0
    4.6257    0.6531    0.0000 C   0  0  0  0  0  0  0  0  0  0  0  0
    5.3402    0.2406    0.0000 C   0  0  0  0  0  0  0  0  0  0  0  0
    5.3402   -0.5844    0.0000 C   0  0  0  0  0  0  0  0  0  0  0  0
    4.6257   -0.9969    0.0000 C   0  0  0  0  0  0  0  0  0  0  0  0
    3.9113   -0.5844    0.0000 C   0  0  0  0  0  0  0  0  0  0  0  0
    3.1968   -0.9969    0.0000 O   0  0  0  0  0  0  0  0  0  0  0  0
    2.4823   -0.5844    0.0000 C   0  0  0  0  0  0  0  0  0  0  0  0
    1.7679   -0.9969    0.0000 F   0  0  0  0  0  0  0  0  0  0  0  0
    2.4823    0.2406    0.0000 F   0  0  0  0  0  0  0  0  0  0  0  0
    3.9113    0.2406    0.0000 C   0  0  0  0  0  0  0  0  0  0  0  0
  2  3  1  0  0  0  0
  3  4  1  0  0  0  0
  4  5  2  0  0  0  0
  5  6  1  0  0  0  0
  6  7  2  0  0  0  0
  7  8  1  0  0  0  0
  8  9  1  0  0  0  0
  9 10  1  0  0  0  0
 10 11  1  0  0  0  0
 10 12  1  0  0  0  0
  8 13  2  0  0  0  0
  4 13  1  0  0  0  0
M  END
>  <Catalog ID>
Z969560714

>  <PlateID>
1198308-R-SPFL-15

>  <Well>
F05

>  <MW (desalted)>
173.160

>  <ClogP>
1.459

>  <HBD>
1

>  <TPSA>
35.250

>  <RotBonds>
3

$$$$

            

 12 13  0  0  0  0            999 V2000
    3.4479    1.4620    0.0000 C   0  0  0  0  0  0  0  0  0  0  0  0
    3.6315    0.6577    0.0000 N   0  0  0  0  0  0  0  0  0  0  0  0
    4.4358    0.4742    0.0000 C   0  0  0  0  0  0  0  0  0  0  0  0
    4.7938   -0.2691    0.0000 C   0  0  0  0  0  0  0  0  0  0  0  0
    4.4358   -1.0124    0.0000 N   0  0  0  0  0  0  0  0  0  0  0  0
    3.6315   -1.1960    0.0000 C   0  0  0  0  0  0  0  0  0  0  0  0
    2.9865   -0.6816    0.0000 C   0  0  0  0  0  0  0  0  0  0  0  0
    2.2720   -1.0941    0.0000 C   0  0  0  0  0  0  0  0  0  0  0  0
    1.5575   -0.6816    0.0000 C   0  0  0  0  0  0  0  0  0  0  0  0
    1.5575    0.1434    0.0000 C   0  0  0  0  0  0  0  0  0  0  0  0
    2.2720    0.5559    0.0000 C   0  0  0  0  0  0  0  0  0  0  0  0
    2.9865    0.1434    0.0000 C   0  0  0  0  0  0  0  0  0  0  0  0
  1  2  1  0  0  0  0
  2  3  1  0  0  0  0
  3  4  1  0  0  0  0
  4  5  1  0  0  0  0
  5  6  1  0  0  0  0
  6  7  1  0  0  0  0
  7  8  2  0  0  0  0
  8  9  1  0  0  0  0
  9 10  2  0  0  0  0
 10 11  1  0  0  0  0
 11 12  2  0  0  0  0
  2 12  1  0  0  0  0
  7 12  1  0  0  0  0
M  END
>  <Catalog ID>
Z1080670256

>  <PlateID>
1198308-R-SPFL-15

>  <Well>
F06

>  <MW (desalted)>
162.232

>  <ClogP>
1.694

>  <HBD>
1

>  <TPSA>
15.270

>  <RotBonds>
0

$$$$

            

 15 15  0  0  0  0            999 V2000
    0.0000    0.0000    0.0000 Cl  0  0  0  0  0  0  0  0  0  0  0  0
    4.8030    3.1347    0.0000 N   0  0  0  0  0  0  0  0  0  0  0  0
    4.8030    2.3097    0.0000 C   0  0  0  0  0  0  0  0  0  0  0  0
    4.0885    1.8972    0.0000 C   0  0  0  0  0  0  0  0  0  0  0  0
    4.0885    1.0722    0.0000 C   0  0  0  0  0  0  0  0  0  0  0  0
    4.7560    0.5873    0.0000 N   0  0  0  0  0  0  0  0  0  0  0  0
    4.5010   -0.1974    0.0000 N   0  0  0  0  0  0  0  0  0  0  0  0
    3.6760   -0.1974    0.0000 C   0  0  0  0  0  0  0  0  0  0  0  0
    3.4211    0.5873    0.0000 O   0  0  0  0  0  0  0  0  0  0  0  0
    3.1911   -0.8648    0.0000 C   0  0  0  0  0  0  0  0  0  0  0  0
    3.5267   -1.6185    0.0000 C   0  0  0  0  0  0  0  0  0  0  0  0
    3.0418   -2.2859    0.0000 C   0  0  0  0  0  0  0  0  0  0  0  0
    2.2213   -2.1997    0.0000 C   0  0  0  0  0  0  0  0  0  0  0  0
    1.8857   -1.4460    0.0000 C   0  0  0  0  0  0  0  0  0  0  0  0
    2.3706   -0.7786    0.0000 C   0  0  0  0  0  0  0  0  0  0  0  0
  2  3  1  0  0  0  0
  3  4  1  0  0  0  0
  4  5  1  0  0  0  0
  5  6  2  0  0  0  0
  6  7  1  0  0  0  0
  7  8  2  0  0  0  0
  8  9  1  0  0  0  0
  5  9  1  0  0  0  0
  8 10  1  0  0  0  0
 10 11  2  0  0  0  0
 11 12  1  0  0  0  0
 12 13  2  0  0  0  0
 13 14  1  0  0  0  0
 14 15  2  0  0  0  0
 10 15  1  0  0  0  0
M  END
>  <Catalog ID>
Z1891776392

>  <PlateID>
1198308-R-SPFL-15

>  <Well>
F07

>  <MW (desalted)>
189.214

>  <ClogP>
-0.247

>  <HBD>
1

>  <TPSA>
64.940

>  <RotBonds>
3

$$$$

            

 11 10  0  0  0  0            999 V2000
    0.0000    0.0000    0.0000 Cl  0  0  0  0  0  0  0  0  0  0  0  0
    3.9690    1.7212    0.0000 C   0  0  0  0  0  0  0  0  0  0  0  0
    3.2546    1.3087    0.0000 C   0  0  0  0  0  0  0  0  0  0  0  0
    2.5401    1.7212    0.0000 C   0  0  0  0  0  0  0  0  0  0  0  0
    3.2546    0.4837    0.0000 C   0  0  0  0  0  0  0  0  0  0  0  0
    3.9220   -0.0013    0.0000 N   0  0  0  0  0  0  0  0  0  0  0  0
    3.6671   -0.7859    0.0000 N   0  0  0  0  0  0  0  0  0  0  0  0
    2.8421   -0.7859    0.0000 C   0  0  0  0  0  0  0  0  0  0  0  0
    2.3571   -1.4533    0.0000 C   0  0  0  0  0  0  0  0  0  0  0  0
    2.6927   -2.2070    0.0000 N   0  0  0  0  0  0  0  0  0  0  0  0
    2.5871   -0.0013    0.0000 S   0  0  0  0  0  0  0  0  0  0  0  0
  2  3  1  0  0  0  0
  3  4  1  0  0  0  0
  3  5  1  0  0  0  0
  5  6  2  0  0  0  0
  6  7  1  0  0  0  0
  7  8  2  0  0  0  0
  8  9  1  0  0  0  0
  9 10  1  0  0  0  0
  8 11  1  0  0  0  0
  5 11  1  0  0  0  0
M  END
>  <Catalog ID>
Z1255428272

>  <PlateID>
1198308-R-SPFL-15

>  <Well>
F08

>  <MW (desalted)>
157.237

>  <ClogP>
-0.225

>  <HBD>
1

>  <TPSA>
51.800

>  <RotBonds>
2

$$$$

            

 12 13  0  0  0  0            999 V2000
   -0.1712   -0.6979    0.0000 C   0  0  0  0  0  0  0  0  0  0  0  0
    0.6538   -0.6979    0.0000 C   0  0  0  0  0  0  0  0  0  0  0  0
    1.1387   -0.0305    0.0000 N   0  0  0  0  0  0  0  0  0  0  0  0
    1.9233   -0.2854    0.0000 C   0  0  0  0  0  0  0  0  0  0  0  0
    2.6378    0.1271    0.0000 C   0  0  0  0  0  0  0  0  0  0  0  0
    3.3523   -0.2854    0.0000 C   0  0  0  0  0  0  0  0  0  0  0  0
    3.3523   -1.1104    0.0000 C   0  0  0  0  0  0  0  0  0  0  0  0
    4.0668   -1.5229    0.0000 Cl  0  0  0  0  0  0  0  0  0  0  0  0
    2.6378   -1.5229    0.0000 C   0  0  0  0  0  0  0  0  0  0  0  0
    1.9233   -1.1104    0.0000 N   0  0  0  0  0  0  0  0  0  0  0  0
    1.1387   -1.3654    0.0000 C   0  0  0  0  0  0  0  0  0  0  0  0
    0.8838   -2.1500    0.0000 N   0  0  0  0  0  0  0  0  0  0  0  0
  1  2  1  0  0  0  0
  2  3  1  0  0  0  0
  3  4  2  0  0  0  0
  4  5  1  0  0  0  0
  5  6  2  0  0  0  0
  6  7  1  0  0  0  0
  7  8  1  0  0  0  0
  7  9  2  0  0  0  0
  9 10  1  0  0  0  0
  4 10  1  0  0  0  0
 10 11  1  0  0  0  0
  2 11  2  0  0  0  0
 11 12  1  0  0  0  0
M  END
>  <Catalog ID>
Z1142689996

>  <PlateID>
1198308-R-SPFL-15

>  <Well>
F09

>  <MW (desalted)>
181.622

>  <ClogP>
2.048

>  <HBD>
1

>  <TPSA>
43.320

>  <RotBonds>
0

$$$$

            

 11 11  0  0  0  0            999 V2000
   -0.1467    2.3518    0.0000 C   0  0  0  0  0  0  0  0  0  0  0  0
    0.5678    1.9393    0.0000 C   0  0  0  0  0  0  0  0  0  0  0  0
    1.2822    2.3518    0.0000 C   0  0  0  0  0  0  0  0  0  0  0  0
    0.5678    1.1143    0.0000 C   0  0  0  0  0  0  0  0  0  0  0  0
    1.2352    0.6294    0.0000 N   0  0  0  0  0  0  0  0  0  0  0  0
    0.9803   -0.1553    0.0000 C   0  0  0  0  0  0  0  0  0  0  0  0
    1.4652   -0.8227    0.0000 C   0  0  0  0  0  0  0  0  0  0  0  0
    1.1296   -1.5764    0.0000 C   0  0  0  0  0  0  0  0  0  0  0  0
    1.6145   -2.2438    0.0000 N   0  0  0  0  0  0  0  0  0  0  0  0
    0.1553   -0.1553    0.0000 C   0  0  0  0  0  0  0  0  0  0  0  0
   -0.0997    0.6294    0.0000 S   0  0  0  0  0  0  0  0  0  0  0  0
  1  2  1  0  0  0  0
  2  3  1  0  0  0  0
  2  4  1  0  0  0  0
  4  5  2  0  0  0  0
  5  6  1  0  0  0  0
  6  7  1  0  0  0  0
  7  8  1  0  0  0  0
  8  9  1  0  0  0  0
  6 10  2  0  0  0  0
 10 11  1  0  0  0  0
  4 11  1  0  0  0  0
M  END
>  <Catalog ID>
Z803153238

>  <PlateID>
1198308-R-SPFL-15

>  <Well>
F10

>  <MW (desalted)>
170.275

>  <ClogP>
1.204

>  <HBD>
1

>  <TPSA>
38.910

>  <RotBonds>
3

$$$$

            

 12 12  0  0  0  0            999 V2000
   -0.7145    2.0625    0.0000 N   0  0  0  0  0  0  0  0  0  0  0  0
    0.0000    2.4750    0.0000 C   0  0  0  0  0  0  0  0  0  0  0  0
    0.7145    2.0625    0.0000 C   0  0  0  0  0  0  0  0  0  0  0  0
    0.7145    1.2375    0.0000 C   0  0  0  0  0  0  0  0  0  0  0  0
    1.4289    0.8250    0.0000 C   0  0  0  0  0  0  0  0  0  0  0  0
    1.4289   -0.0000    0.0000 C   0  0  0  0  0  0  0  0  0  0  0  0
    0.7145   -0.4125    0.0000 C   0  0  0  0  0  0  0  0  0  0  0  0
    0.0000    0.0000    0.0000 C   0  0  0  0  0  0  0  0  0  0  0  0
    0.0000    0.8250    0.0000 C   0  0  0  0  0  0  0  0  0  0  0  0
    0.0000    3.3000    0.0000 C   0  0  0  0  0  0  0  0  0  0  0  0
   -0.7145    3.7125    0.0000 O   0  0  0  0  0  0  0  0  0  0  0  0
    0.7145    3.7125    0.0000 N   0  0  0  0  0  0  0  0  0  0  0  0
  1  2  1  0  0  0  0
  2  3  1  0  0  0  0
  3  4  1  0  0  0  0
  4  5  2  0  0  0  0
  5  6  1  0  0  0  0
  6  7  2  0  0  0  0
  7  8  1  0  0  0  0
  8  9  2  0  0  0  0
  4  9  1  0  0  0  0
  2 10  1  0  0  0  0
 10 11  2  0  0  0  0
 10 12  1  0  0  0  0
M  END
>  <Catalog ID>
Z317075516

>  <PlateID>
1198308-R-SPFL-15

>  <Well>
F11

>  <MW (desalted)>
164.204

>  <ClogP>
-0.144

>  <HBD>
2

>  <TPSA>
69.110

>  <RotBonds>
3

$$$$

            

 11 11  0  0  0  0            999 V2000
    0.0000    3.3000    0.0000 C   0  0  0  0  0  0  0  0  0  0  0  0
    0.0000    2.4750    0.0000 C   0  0  0  0  0  0  0  0  0  0  0  0
   -0.7145    2.0625    0.0000 C   0  0  0  0  0  0  0  0  0  0  0  0
    0.7145    2.0625    0.0000 O   0  0  0  0  0  0  0  0  0  0  0  0
    0.7145    1.2375    0.0000 C   0  0  0  0  0  0  0  0  0  0  0  0
    1.4289    0.8250    0.0000 C   0  0  0  0  0  0  0  0  0  0  0  0
    1.4289   -0.0000    0.0000 C   0  0  0  0  0  0  0  0  0  0  0  0
    0.7145   -0.4125    0.0000 C   0  0  0  0  0  0  0  0  0  0  0  0
    0.7145   -1.2375    0.0000 N   0  0  0  0  0  0  0  0  0  0  0  0
    0.0000    0.0000    0.0000 C   0  0  0  0  0  0  0  0  0  0  0  0
    0.0000    0.8250    0.0000 N   0  0  0  0  0  0  0  0  0  0  0  0
  1  2  1  0  0  0  0
  2  3  1  0  0  0  0
  2  4  1  0  0  0  0
  4  5  1  0  0  0  0
  5  6  2  0  0  0  0
  6  7  1  0  0  0  0
  7  8  2  0  0  0  0
  8  9  1  0  0  0  0
  8 10  1  0  0  0  0
 10 11  2  0  0  0  0
  5 11  1  0  0  0  0
M  END
>  <Catalog ID>
Z285175620

>  <PlateID>
1198308-R-SPFL-15

>  <Well>
G02

>  <MW (desalted)>
152.194

>  <ClogP>
2.000

>  <HBD>
1

>  <TPSA>
48.140

>  <RotBonds>
2

$$$$

            

 11 11  0  0  0  0            999 V2000
    0.0000    0.0000    0.0000 Cl  0  0  0  0  0  0  0  0  0  0  0  0
    3.8697    1.4850    0.0000 C   0  0  0  0  0  0  0  0  0  0  0  0
    3.8697    0.6600    0.0000 C   0  0  0  0  0  0  0  0  0  0  0  0
    4.5842    0.2475    0.0000 N   0  0  0  0  0  0  0  0  0  0  0  0
    4.5842   -0.5775    0.0000 C   0  0  0  0  0  0  0  0  0  0  0  0
    3.8697   -0.9900    0.0000 C   0  0  0  0  0  0  0  0  0  0  0  0
    3.1553   -0.5775    0.0000 C   0  0  0  0  0  0  0  0  0  0  0  0
    2.3706   -0.8324    0.0000 S   0  0  0  0  0  0  0  0  0  0  0  0
    1.8857   -0.1650    0.0000 C   0  0  0  0  0  0  0  0  0  0  0  0
    2.3706    0.5024    0.0000 C   0  0  0  0  0  0  0  0  0  0  0  0
    3.1553    0.2475    0.0000 C   0  0  0  0  0  0  0  0  0  0  0  0
  2  3  1  0  0  0  0
  3  4  1  0  0  0  0
  4  5  1  0  0  0  0
  5  6  1  0  0  0  0
  6  7  1  0  0  0  0
  7  8  1  0  0  0  0
  8  9  1  0  0  0  0
  9 10  2  0  0  0  0
 10 11  1  0  0  0  0
  3 11  1  0  0  0  0
  7 11  2  0  0  0  0
M  END
>  <Catalog ID>
Z104377998

>  <PlateID>
1198308-R-SPFL-15

>  <Well>
G03

>  <MW (desalted)>
153.245

>  <ClogP>
1.760

>  <HBD>
1

>  <TPSA>
12.030

>  <RotBonds>
0

$$$$

            

  0  0  0     0  0            999 V3000
M  V30 BEGIN CTAB
M  V30 COUNTS 10 11 0 0 0
M  V30 BEGIN ATOM
M  V30 1 C 1.0361 -2.4918 0 0
M  V30 2 C 2.3698 -1.7218 0 0
M  V30 3 C 2.9962 -3.1286 0 0
M  V30 4 C 1.4646 -0.4759 0 0
M  V30 5 N 2.3698 0.77 0 0
M  V30 6 C 3.8344 0.2941 0 0 CFG=2
M  V30 7 C 5.2991 0.77 0 0
M  V30 8 O 6.2043 -0.4759 0 0
M  V30 9 C 5.2991 -1.7218 0 0
M  V30 10 C 3.8344 -1.2459 0 0 CFG=2
M  V30 END ATOM
M  V30 BEGIN BOND
M  V30 1 1 1 2
M  V30 2 1 2 3
M  V30 3 1 2 4
M  V30 4 1 4 5
M  V30 5 1 6 5 CFG=3
M  V30 6 1 6 7
M  V30 7 1 7 8
M  V30 8 1 8 9
M  V30 9 1 10 9 CFG=3
M  V30 10 1 6 10
M  V30 11 1 10 2
M  V30 END BOND
M  V30 BEGIN COLLECTION
M  V30 MDLV30/STERAC1 ATOMS=(2 6 10)
M  V30 END COLLECTION
M  V30 END CTAB
M  END
>  <Catalog ID>
Z2239020266

>  <PlateID>
1198308-R-SPFL-15

>  <Well>
G04

>  <MW (desalted)>
141.211

>  <ClogP>
0.898

>  <HBD>
1

>  <TPSA>
21.260

>  <RotBonds>
0

$$$$

            

 11 12  0  0  0  0            999 V2000
    1.4289   -2.4750    0.0000 O   0  0  0  0  0  0  0  0  0  0  0  0
    1.4289   -1.6500    0.0000 C   0  0  0  0  0  0  0  0  0  0  0  0
    0.7145   -1.2375    0.0000 N   0  0  0  0  0  0  0  0  0  0  0  0
    0.7145   -0.4125    0.0000 C   0  0  0  0  0  0  0  0  0  0  0  0
    1.4289    0.0000    0.0000 C   0  0  0  0  0  0  0  0  0  0  0  0
    2.1434   -0.4125    0.0000 C   0  0  0  0  0  0  0  0  0  0  0  0
    2.8579    0.0000    0.0000 C   0  0  0  0  0  0  0  0  0  0  0  0
    3.5724   -0.4125    0.0000 C   0  0  0  0  0  0  0  0  0  0  0  0
    3.5724   -1.2375    0.0000 C   0  0  0  0  0  0  0  0  0  0  0  0
    2.8579   -1.6500    0.0000 C   0  0  0  0  0  0  0  0  0  0  0  0
    2.1434   -1.2375    0.0000 C   0  0  0  0  0  0  0  0  0  0  0  0
  1  2  2  0  0  0  0
  2  3  1  0  0  0  0
  3  4  1  0  0  0  0
  4  5  1  0  0  0  0
  5  6  1  0  0  0  0
  6  7  2  0  0  0  0
  7  8  1  0  0  0  0
  8  9  2  0  0  0  0
  9 10  1  0  0  0  0
 10 11  2  0  0  0  0
  2 11  1  0  0  0  0
  6 11  1  0  0  0  0
M  END
>  <Catalog ID>
Z56801375

>  <PlateID>
1198308-R-SPFL-15

>  <Well>
G05

>  <MW (desalted)>
147.174

>  <ClogP>
0.996

>  <HBD>
1

>  <TPSA>
29.100

>  <RotBonds>
0

$$$$

            

 12 12  0  0  0  0            999 V2000
    0.0000    0.0000    0.0000 Cl  0  0  0  0  0  0  0  0  0  0  0  0
    2.3571   -0.6495    0.0000 N   0  0  0  0  0  0  0  0  0  0  0  0
    2.7696    0.0650    0.0000 C   0  0  0  0  0  0  0  0  0  0  0  0
    3.5946    0.0650    0.0000 C   0  0  0  0  0  0  0  0  0  0  0  0
    4.0796    0.7324    0.0000 C   0  0  0  0  0  0  0  0  0  0  0  0
    4.8642    0.4775    0.0000 C   0  0  0  0  0  0  0  0  0  0  0  0
    5.5787    0.8900    0.0000 C   0  0  0  0  0  0  0  0  0  0  0  0
    6.2931    0.4775    0.0000 C   0  0  0  0  0  0  0  0  0  0  0  0
    6.2931   -0.3475    0.0000 C   0  0  0  0  0  0  0  0  0  0  0  0
    5.5787   -0.7600    0.0000 C   0  0  0  0  0  0  0  0  0  0  0  0
    4.8642   -0.3475    0.0000 C   0  0  0  0  0  0  0  0  0  0  0  0
    4.0796   -0.6025    0.0000 O   0  0  0  0  0  0  0  0  0  0  0  0
  2  3  1  0  0  0  0
  3  4  1  0  0  0  0
  4  5  2  0  0  0  0
  5  6  1  0  0  0  0
  6  7  2  0  0  0  0
  7  8  1  0  0  0  0
  8  9  2  0  0  0  0
  9 10  1  0  0  0  0
 10 11  2  0  0  0  0
  6 11  1  0  0  0  0
 11 12  1  0  0  0  0
  4 12  1  0  0  0  0
M  END
>  <Catalog ID>
Z425449776

>  <PlateID>
1198308-R-SPFL-15

>  <Well>
G06

>  <MW (desalted)>
147.174

>  <ClogP>
1.654

>  <HBD>
1

>  <TPSA>
39.160

>  <RotBonds>
1

$$$$

            

 14 13  0  0  0  0            999 V2000
    0.0000    0.0000    0.0000 Cl  0  0  0  0  0  0  0  0  0  0  0  0
    2.0036    0.0000    0.0000 Cl  0  0  0  0  0  0  0  0  0  0  0  0
   -0.7145   -5.3625    0.0000 C   0  0  0  0  0  0  0  0  0  0  0  0
   -0.7145   -4.5375    0.0000 C   0  0  0  0  0  0  0  0  0  0  0  0
   -0.0000   -4.1250    0.0000 C   0  0  0  0  0  0  0  0  0  0  0  0
    0.7145   -4.5375    0.0000 C   0  0  0  0  0  0  0  0  0  0  0  0
    0.7145   -5.3625    0.0000 C   0  0  0  0  0  0  0  0  0  0  0  0
   -0.0000   -5.7750    0.0000 N   0  0  0  0  0  0  0  0  0  0  0  0
    0.0000   -3.3000    0.0000 C   0  0  0  0  0  0  0  0  0  0  0  0
   -0.7145   -2.8875    0.0000 C   0  0  0  0  0  0  0  0  0  0  0  0
   -0.7145   -2.0625    0.0000 C   0  0  0  0  0  0  0  0  0  0  0  0
    0.0000   -1.6500    0.0000 C   0  0  0  0  0  0  0  0  0  0  0  0
    0.7145   -2.0625    0.0000 C   0  0  0  0  0  0  0  0  0  0  0  0
    0.7145   -2.8875    0.0000 N   0  0  0  0  0  0  0  0  0  0  0  0
  3  4  1  0  0  0  0
  4  5  1  0  0  0  0
  5  6  1  0  0  0  0
  6  7  1  0  0  0  0
  7  8  1  0  0  0  0
  3  8  1  0  0  0  0
  5  9  1  0  0  0  0
  9 10  2  0  0  0  0
 10 11  1  0  0  0  0
 11 12  2  0  0  0  0
 12 13  1  0  0  0  0
 13 14  2  0  0  0  0
  9 14  1  0  0  0  0
M  END
>  <Catalog ID>
Z3235011505

>  <PlateID>
1198308-R-SPFL-15

>  <Well>
G07

>  <MW (desalted)>
162.232

>  <ClogP>
0.846

>  <HBD>
1

>  <TPSA>
24.920

>  <RotBonds>
1

$$$$

            

 11 12  0  0  0  0            999 V2000
    0.8838   -2.1500    0.0000 N   0  0  0  0  0  0  0  0  0  0  0  0
    1.1387   -1.3654    0.0000 C   0  0  0  0  0  0  0  0  0  0  0  0
    0.6538   -0.6979    0.0000 N   0  0  0  0  0  0  0  0  0  0  0  0
    1.1387   -0.0305    0.0000 C   0  0  0  0  0  0  0  0  0  0  0  0
    1.9233   -0.2854    0.0000 C   0  0  0  0  0  0  0  0  0  0  0  0
    2.6378    0.1271    0.0000 C   0  0  0  0  0  0  0  0  0  0  0  0
    3.3523   -0.2854    0.0000 C   0  0  0  0  0  0  0  0  0  0  0  0
    3.3523   -1.1104    0.0000 C   0  0  0  0  0  0  0  0  0  0  0  0
    4.0668   -1.5229    0.0000 F   0  0  0  0  0  0  0  0  0  0  0  0
    2.6378   -1.5229    0.0000 C   0  0  0  0  0  0  0  0  0  0  0  0
    1.9233   -1.1104    0.0000 C   0  0  0  0  0  0  0  0  0  0  0  0
  1  2  1  0  0  0  0
  2  3  2  0  0  0  0
  3  4  1  0  0  0  0
  4  5  1  0  0  0  0
  5  6  2  0  0  0  0
  6  7  1  0  0  0  0
  7  8  2  0  0  0  0
  8  9  1  0  0  0  0
  8 10  1  0  0  0  0
 10 11  2  0  0  0  0
  2 11  1  0  0  0  0
  5 11  1  0  0  0  0
M  END
>  <Catalog ID>
Z1209475122

>  <PlateID>
1198308-R-SPFL-15

>  <Well>
G08

>  <MW (desalted)>
150.153

>  <ClogP>
0.599

>  <HBD>
1

>  <TPSA>
38.380

>  <RotBonds>
0

$$$$

            

 12 12  0  0  0  0            999 V2000
    0.0000    0.0000    0.0000 Cl  0  0  0  0  0  0  0  0  0  0  0  0
    2.6002   -1.5000    0.0000 N   0  0  0  0  0  0  0  0  0  0  0  0
    2.6002   -0.6750    0.0000 C   0  0  0  0  0  0  0  0  0  0  0  0
    1.8857   -0.2625    0.0000 C   0  0  0  0  0  0  0  0  0  0  0  0
    1.8857    0.5625    0.0000 N   0  0  0  0  0  0  0  0  0  0  0  0
    2.6002    0.9750    0.0000 C   0  0  0  0  0  0  0  0  0  0  0  0
    3.3147    0.5625    0.0000 C   0  0  0  0  0  0  0  0  0  0  0  0
    4.0291    0.9750    0.0000 C   0  0  0  0  0  0  0  0  0  0  0  0
    4.7436    0.5625    0.0000 C   0  0  0  0  0  0  0  0  0  0  0  0
    4.7436   -0.2625    0.0000 C   0  0  0  0  0  0  0  0  0  0  0  0
    4.0291   -0.6750    0.0000 C   0  0  0  0  0  0  0  0  0  0  0  0
    3.3147   -0.2625    0.0000 C   0  0  0  0  0  0  0  0  0  0  0  0
  2  3  1  0  0  0  0
  3  4  2  0  0  0  0
  4  5  1  0  0  0  0
  5  6  2  0  0  0  0
  6  7  1  0  0  0  0
  7  8  1  0  0  0  0
  8  9  1  0  0  0  0
  9 10  1  0  0  0  0
 10 11  1  0  0  0  0
 11 12  1  0  0  0  0
  3 12  1  0  0  0  0
  7 12  2  0  0  0  0
M  END
>  <Catalog ID>
Z4416006374

>  <PlateID>
1198308-R-SPFL-15

>  <Well>
G09

>  <MW (desalted)>
148.205

>  <ClogP>
1.890

>  <HBD>
1

>  <TPSA>
38.910

>  <RotBonds>
0

$$$$

            

 13 14  0  0  0  0            999 V2000
    0.0000   -2.4750    0.0000 C   0  0  0  0  0  0  0  0  0  0  0  0
    0.0000   -1.6500    0.0000 C   0  0  0  0  0  0  0  0  0  0  0  0
   -0.7145   -1.2375    0.0000 C   0  0  0  0  0  0  0  0  0  0  0  0
    0.7145   -1.2375    0.0000 C   0  0  0  0  0  0  0  0  0  0  0  0
    0.7145   -0.4125    0.0000 N   0  0  0  0  0  0  0  0  0  0  0  0
    1.4289    0.0000    0.0000 C   0  0  0  0  0  0  0  0  0  0  0  0
    2.1434   -0.4125    0.0000 C   0  0  0  0  0  0  0  0  0  0  0  0
    2.8579    0.0000    0.0000 C   0  0  0  0  0  0  0  0  0  0  0  0
    3.5724   -0.4125    0.0000 C   0  0  0  0  0  0  0  0  0  0  0  0
    3.5724   -1.2375    0.0000 N   0  0  0  0  0  0  0  0  0  0  0  0
    2.8579   -1.6500    0.0000 C   0  0  0  0  0  0  0  0  0  0  0  0
    2.1434   -1.2375    0.0000 C   0  0  0  0  0  0  0  0  0  0  0  0
    1.4289   -1.6500    0.0000 N   0  0  0  0  0  0  0  0  0  0  0  0
  1  2  1  0  0  0  0
  2  3  1  0  0  0  0
  2  4  1  0  0  0  0
  4  5  2  0  0  0  0
  5  6  1  0  0  0  0
  6  7  2  0  0  0  0
  7  8  1  0  0  0  0
  8  9  1  0  0  0  0
  9 10  1  0  0  0  0
 10 11  1  0  0  0  0
 11 12  1  0  0  0  0
  7 12  1  0  0  0  0
 12 13  2  0  0  0  0
  4 13  1  0  0  0  0
M  END
>  <Catalog ID>
Z1142707016

>  <PlateID>
1198308-R-SPFL-15

>  <Well>
G10

>  <MW (desalted)>
177.246

>  <ClogP>
0.568

>  <HBD>
1

>  <TPSA>
37.810

>  <RotBonds>
1

$$$$

            

 12 11  0  0  0  0            999 V2000
    0.0000    0.0000    0.0000 Cl  0  0  0  0  0  0  0  0  0  0  0  0
    4.6852    2.0420    0.0000 N   0  0  0  0  0  0  0  0  0  0  0  0
    3.9707    1.6295    0.0000 C   0  0  0  0  0  0  0  0  0  0  0  0
    3.9707    0.8045    0.0000 C   0  0  0  0  0  0  0  0  0  0  0  0
    4.6381    0.3196    0.0000 C   0  0  0  0  0  0  0  0  0  0  0  0
    4.3832   -0.4651    0.0000 C   0  0  0  0  0  0  0  0  0  0  0  0
    3.5582   -0.4651    0.0000 N   0  0  0  0  0  0  0  0  0  0  0  0
    3.0733   -1.1325    0.0000 C   0  0  0  0  0  0  0  0  0  0  0  0
    2.2528   -1.0463    0.0000 C   0  0  0  0  0  0  0  0  0  0  0  0
    1.7679   -1.7137    0.0000 F   0  0  0  0  0  0  0  0  0  0  0  0
    1.9172   -0.2926    0.0000 F   0  0  0  0  0  0  0  0  0  0  0  0
    3.3032    0.3196    0.0000 N   0  0  0  0  0  0  0  0  0  0  0  0
  2  3  1  0  0  0  0
  3  4  1  0  0  0  0
  4  5  1  0  0  0  0
  5  6  2  0  0  0  0
  6  7  1  0  0  0  0
  7  8  1  0  0  0  0
  8  9  1  0  0  0  0
  9 10  1  0  0  0  0
  9 11  1  0  0  0  0
  7 12  1  0  0  0  0
  4 12  2  0  0  0  0
M  END
>  <Catalog ID>
Z2235681318

>  <PlateID>
1198308-R-SPFL-15

>  <Well>
G11

>  <MW (desalted)>
161.153

>  <ClogP>
-0.216

>  <HBD>
1

>  <TPSA>
43.840

>  <RotBonds>
3

$$$$

            

 13 14  0  0  0  0            999 V2000
    1.9341    1.9417    0.0000 Cl  0  0  0  0  0  0  0  0  0  0  0  0
    2.6486    2.3542    0.0000 C   0  0  0  0  0  0  0  0  0  0  0  0
    2.6486    3.1792    0.0000 C   0  0  0  0  0  0  0  0  0  0  0  0
    3.3631    3.5917    0.0000 C   0  0  0  0  0  0  0  0  0  0  0  0
    4.0776    3.1792    0.0000 C   0  0  0  0  0  0  0  0  0  0  0  0
    4.0776    2.3542    0.0000 C   0  0  0  0  0  0  0  0  0  0  0  0
    3.3631    1.9417    0.0000 C   0  0  0  0  0  0  0  0  0  0  0  0
    3.3631    1.1167    0.0000 C   0  0  0  0  0  0  0  0  0  0  0  0
    4.0776    0.7042    0.0000 N   0  0  0  0  0  0  0  0  0  0  0  0
    4.0776   -0.1208    0.0000 C   0  0  0  0  0  0  0  0  0  0  0  0
    4.6609   -0.7042    0.0000 C   0  0  0  0  0  0  0  0  0  0  0  0
    4.0776   -1.2875    0.0000 O   0  0  0  0  0  0  0  0  0  0  0  0
    3.4942   -0.7042    0.0000 C   0  0  0  0  0  0  0  0  0  0  0  0
  1  2  1  0  0  0  0
  2  3  2  0  0  0  0
  3  4  1  0  0  0  0
  4  5  2  0  0  0  0
  5  6  1  0  0  0  0
  6  7  2  0  0  0  0
  2  7  1  0  0  0  0
  7  8  1  0  0  0  0
  8  9  1  0  0  0  0
  9 10  1  0  0  0  0
 10 11  1  0  0  0  0
 11 12  1  0  0  0  0
 12 13  1  0  0  0  0
 10 13  1  0  0  0  0
M  END
>  <Catalog ID>
Z1142700541

>  <PlateID>
1198308-R-SPFL-15

>  <Well>
H02

>  <MW (desalted)>
197.661

>  <ClogP>
2.319

>  <HBD>
1

>  <TPSA>
21.260

>  <RotBonds>
3

$$$$

            

 13 13  0  0  0  0            999 V2000
    0.0000    0.0000    0.0000 Cl  0  0  0  0  0  0  0  0  0  0  0  0
    2.5004    1.2786    0.0000 N   0  0  0  0  0  0  0  0  0  0  0  0
    2.3571    0.4661    0.0000 C   0  0  0  0  0  0  0  0  0  0  0  0
    2.9891   -0.0642    0.0000 C   0  0  0  0  0  0  0  0  0  0  0  0
    3.4016   -0.7787    0.0000 C   0  0  0  0  0  0  0  0  0  0  0  0
    2.5766   -0.7787    0.0000 C   0  0  0  0  0  0  0  0  0  0  0  0
    3.6211    0.4661    0.0000 O   0  0  0  0  0  0  0  0  0  0  0  0
    4.3964    0.1839    0.0000 C   0  0  0  0  0  0  0  0  0  0  0  0
    5.0283    0.7142    0.0000 C   0  0  0  0  0  0  0  0  0  0  0  0
    5.8036    0.4321    0.0000 C   0  0  0  0  0  0  0  0  0  0  0  0
    5.9469   -0.3804    0.0000 C   0  0  0  0  0  0  0  0  0  0  0  0
    5.3149   -0.9107    0.0000 C   0  0  0  0  0  0  0  0  0  0  0  0
    4.5396   -0.6285    0.0000 C   0  0  0  0  0  0  0  0  0  0  0  0
  2  3  1  0  0  0  0
  3  4  1  0  0  0  0
  4  5  1  0  0  0  0
  5  6  1  0  0  0  0
  4  6  1  0  0  0  0
  4  7  1  0  0  0  0
  7  8  1  0  0  0  0
  8  9  2  0  0  0  0
  9 10  1  0  0  0  0
 10 11  2  0  0  0  0
 11 12  1  0  0  0  0
 12 13  2  0  0  0  0
  8 13  1  0  0  0  0
M  END
>  <Catalog ID>
Z2345452140

>  <PlateID>
1198308-R-SPFL-15

>  <Well>
H03

>  <MW (desalted)>
163.216

>  <ClogP>
1.606

>  <HBD>
1

>  <TPSA>
35.250

>  <RotBonds>
3

$$$$

            

 12 11  0  0  0  0            999 V2000
    0.0000    4.1250    0.0000 Na  0  3  0  0  0  0  0  0  0  0  0  0
    0.0000    3.3000    0.0000 O   0  5  0  0  0  0  0  0  0  0  0  0
    0.0000    2.4750    0.0000 C   0  0  0  0  0  0  0  0  0  0  0  0
   -0.7145    2.0625    0.0000 O   0  0  0  0  0  0  0  0  0  0  0  0
    0.7145    2.0625    0.0000 C   0  0  0  0  0  0  0  0  0  0  0  0
    0.7145    1.2375    0.0000 C   0  0  0  0  0  0  0  0  0  0  0  0
    1.4289    0.8250    0.0000 C   0  0  0  0  0  0  0  0  0  0  0  0
    1.4289   -0.0000    0.0000 C   0  0  0  0  0  0  0  0  0  0  0  0
    0.7145   -0.4125    0.0000 N   0  0  0  0  0  0  0  0  0  0  0  0
    0.0000    0.0000    0.0000 C   0  0  0  0  0  0  0  0  0  0  0  0
    0.0000    0.8250    0.0000 C   0  0  0  0  0  0  0  0  0  0  0  0
   -0.7145    1.2375    0.0000 Cl  0  0  0  0  0  0  0  0  0  0  0  0
  2  3  1  0  0  0  0
  3  4  2  0  0  0  0
  3  5  1  0  0  0  0
  5  6  1  0  0  0  0
  6  7  2  0  0  0  0
  7  8  1  0  0  0  0
  8  9  2  0  0  0  0
  9 10  1  0  0  0  0
 10 11  2  0  0  0  0
  6 11  1  0  0  0  0
 11 12  1  0  0  0  0
M  CHG  2   1   1   2  -1
M  END
>  <Catalog ID>
Z3181672322

>  <PlateID>
1198308-R-SPFL-15

>  <Well>
H04

>  <MW (desalted)>
171.581

>  <ClogP>
-3.126

>  <HBD>
0

>  <TPSA>
53.020

>  <RotBonds>
2

$$$$

            

 12 12  0  0  0  0            999 V2000
    0.0000    0.0000    0.0000 Cl  0  0  0  0  0  0  0  0  0  0  0  0
    2.3571   -0.6495    0.0000 N   0  0  0  0  0  0  0  0  0  0  0  0
    2.7696    0.0650    0.0000 C   0  0  0  0  0  0  0  0  0  0  0  0
    3.5946    0.0650    0.0000 C   0  0  0  0  0  0  0  0  0  0  0  0
    4.0796    0.7324    0.0000 C   0  0  0  0  0  0  0  0  0  0  0  0
    4.8642    0.4775    0.0000 C   0  0  0  0  0  0  0  0  0  0  0  0
    5.5787    0.8900    0.0000 C   0  0  0  0  0  0  0  0  0  0  0  0
    6.2931    0.4775    0.0000 C   0  0  0  0  0  0  0  0  0  0  0  0
    6.2931   -0.3475    0.0000 C   0  0  0  0  0  0  0  0  0  0  0  0
    5.5787   -0.7600    0.0000 C   0  0  0  0  0  0  0  0  0  0  0  0
    4.8642   -0.3475    0.0000 C   0  0  0  0  0  0  0  0  0  0  0  0
    4.0796   -0.6025    0.0000 O   0  0  0  0  0  0  0  0  0  0  0  0
  2  3  1  0  0  0  0
  3  4  1  0  0  0  0
  4  5  1  0  0  0  0
  5  6  1  0  0  0  0
  6  7  2  0  0  0  0
  7  8  1  0  0  0  0
  8  9  2  0  0  0  0
  9 10  1  0  0  0  0
 10 11  2  0  0  0  0
  6 11  1  0  0  0  0
 11 12  1  0  0  0  0
  4 12  1  0  0  0  0
M  END
>  <Catalog ID>
Z2106607191

>  <PlateID>
1198308-R-SPFL-15

>  <Well>
H05

>  <MW (desalted)>
149.190

>  <ClogP>
1.323

>  <HBD>
1

>  <TPSA>
35.250

>  <RotBonds>
1

$$$$

            

 14 12  0  0  0  0            999 V2000
    0.0000    0.0000    0.0000 Cl  0  0  0  0  0  0  0  0  0  0  0  0
    2.0036    0.0000    0.0000 Cl  0  0  0  0  0  0  0  0  0  0  0  0
   -0.2977   -1.6500    0.0000 N   0  0  0  0  0  0  0  0  0  0  0  0
   -0.2977   -2.4750    0.0000 C   0  0  0  0  0  0  0  0  0  0  0  0
    0.4168   -2.8875    0.0000 C   0  0  0  0  0  0  0  0  0  0  0  0
    0.4168   -3.7125    0.0000 C   0  0  0  0  0  0  0  0  0  0  0  0
   -0.2977   -4.1250    0.0000 N   0  0  0  0  0  0  0  0  0  0  0  0
   -0.2977   -4.9500    0.0000 C   0  0  0  0  0  0  0  0  0  0  0  0
    0.4168   -5.3625    0.0000 C   0  0  0  0  0  0  0  0  0  0  0  0
    1.1312   -5.7750    0.0000 F   0  0  0  0  0  0  0  0  0  0  0  0
    0.0043   -6.0770    0.0000 F   0  0  0  0  0  0  0  0  0  0  0  0
    0.8293   -4.6480    0.0000 F   0  0  0  0  0  0  0  0  0  0  0  0
   -1.0122   -3.7125    0.0000 C   0  0  0  0  0  0  0  0  0  0  0  0
   -1.0122   -2.8875    0.0000 C   0  0  0  0  0  0  0  0  0  0  0  0
  3  4  1  0  0  0  0
  4  5  1  0  0  0  0
  5  6  1  0  0  0  0
  6  7  1  0  0  0  0
  7  8  1  0  0  0  0
  8  9  1  0  0  0  0
  9 10  1  0  0  0  0
  9 11  1  0  0  0  0
  9 12  1  0  0  0  0
  7 13  1  0  0  0  0
 13 14  1  0  0  0  0
  4 14  1  0  0  0  0
M  END
>  <Catalog ID>
Z415636684

>  <PlateID>
1198308-R-SPFL-15

>  <Well>
H06

>  <MW (desalted)>
182.187

>  <ClogP>
0.017

>  <HBD>
1

>  <TPSA>
29.260

>  <RotBonds>
2

$$$$

            

 15 13  0  0  0  0            999 V2000
    0.0000    0.0000    0.0000 Cl  0  0  0  0  0  0  0  0  0  0  0  0
    2.0036    0.0000    0.0000 Cl  0  0  0  0  0  0  0  0  0  0  0  0
   -1.0992   -1.6500    0.0000 N   0  0  0  0  0  0  0  0  0  0  0  0
   -1.0992   -2.4750    0.0000 C   0  0  0  0  0  0  0  0  0  0  0  0
   -0.3847   -2.8875    0.0000 C   0  0  0  0  0  0  0  0  0  0  0  0
   -0.3847   -3.7125    0.0000 C   0  0  0  0  0  0  0  0  0  0  0  0
    0.3298   -4.1250    0.0000 C   0  0  0  0  0  0  0  0  0  0  0  0
    0.3298   -4.9500    0.0000 C   0  0  0  0  0  0  0  0  0  0  0  0
   -0.3847   -5.3625    0.0000 C   0  0  0  0  0  0  0  0  0  0  0  0
   -1.0992   -4.9500    0.0000 C   0  0  0  0  0  0  0  0  0  0  0  0
   -1.0992   -4.1250    0.0000 N   0  0  0  0  0  0  0  0  0  0  0  0
    1.0442   -5.3625    0.0000 C   0  0  0  0  0  0  0  0  0  0  0  0
    1.7587   -5.7750    0.0000 F   0  0  0  0  0  0  0  0  0  0  0  0
    0.6317   -6.0770    0.0000 F   0  0  0  0  0  0  0  0  0  0  0  0
    1.4567   -4.6480    0.0000 F   0  0  0  0  0  0  0  0  0  0  0  0
  3  4  1  0  0  0  0
  4  5  1  0  0  0  0
  5  6  1  0  0  0  0
  6  7  2  0  0  0  0
  7  8  1  0  0  0  0
  8  9  2  0  0  0  0
  9 10  1  0  0  0  0
 10 11  2  0  0  0  0
  6 11  1  0  0  0  0
  8 12  1  0  0  0  0
 12 13  1  0  0  0  0
 12 14  1  0  0  0  0
 12 15  1  0  0  0  0
M  END
>  <Catalog ID>
Z2573827819

>  <PlateID>
1198308-R-SPFL-15

>  <Well>
H07

>  <MW (desalted)>
190.166

>  <ClogP>
0.966

>  <HBD>
1

>  <TPSA>
38.910

>  <RotBonds>
3

$$$$

            

 13 12  0  0  0  0            999 V2000
    0.0000    0.0000    0.0000 Cl  0  0  0  0  0  0  0  0  0  0  0  0
    2.0036    0.0000    0.0000 Cl  0  0  0  0  0  0  0  0  0  0  0  0
   -0.4125   -5.3945    0.0000 C   0  0  0  0  0  0  0  0  0  0  0  0
   -0.6674   -4.6099    0.0000 C   0  0  0  0  0  0  0  0  0  0  0  0
    0.0000   -4.1250    0.0000 C   0  0  0  0  0  0  0  0  0  0  0  0
    0.6674   -4.6099    0.0000 C   0  0  0  0  0  0  0  0  0  0  0  0
    0.4125   -5.3945    0.0000 N   0  0  0  0  0  0  0  0  0  0  0  0
    0.0000   -3.3000    0.0000 C   0  0  0  0  0  0  0  0  0  0  0  0
   -0.7145   -2.8875    0.0000 C   0  0  0  0  0  0  0  0  0  0  0  0
   -0.7145   -2.0625    0.0000 C   0  0  0  0  0  0  0  0  0  0  0  0
   -0.0000   -1.6500    0.0000 C   0  0  0  0  0  0  0  0  0  0  0  0
    0.7145   -2.0625    0.0000 C   0  0  0  0  0  0  0  0  0  0  0  0
    0.7145   -2.8875    0.0000 N   0  0  0  0  0  0  0  0  0  0  0  0
  3  4  1  0  0  0  0
  4  5  1  0  0  0  0
  5  6  1  0  0  0  0
  6  7  1  0  0  0  0
  3  7  1  0  0  0  0
  5  8  1  0  0  0  0
  8  9  2  0  0  0  0
  9 10  1  0  0  0  0
 10 11  2  0  0  0  0
 11 12  1  0  0  0  0
 12 13  2  0  0  0  0
  8 13  1  0  0  0  0
M  END
>  <Catalog ID>
Z2919705619

>  <PlateID>
1198308-R-SPFL-15

>  <Well>
H08

>  <MW (desalted)>
148.205

>  <ClogP>
0.437

>  <HBD>
1

>  <TPSA>
24.920

>  <RotBonds>
1

$$$$

            

 14 14  0  0  0  0            999 V2000
    0.0000    0.0000    0.0000 Cl  0  0  0  0  0  0  0  0  0  0  0  0
    2.3571    2.5508    0.0000 N   0  0  0  0  0  0  0  0  0  0  0  0
    3.0716    2.1383    0.0000 C   0  0  0  0  0  0  0  0  0  0  0  0
    3.0716    1.3133    0.0000 C   0  0  0  0  0  0  0  0  0  0  0  0
    3.7391    0.8284    0.0000 C   0  0  0  0  0  0  0  0  0  0  0  0
    3.4841    0.0438    0.0000 C   0  0  0  0  0  0  0  0  0  0  0  0
    2.6591    0.0438    0.0000 O   0  0  0  0  0  0  0  0  0  0  0  0
    2.4042    0.8284    0.0000 N   0  0  0  0  0  0  0  0  0  0  0  0
    3.9690   -0.6237    0.0000 C   0  0  0  0  0  0  0  0  0  0  0  0
    4.7895   -0.5374    0.0000 C   0  0  0  0  0  0  0  0  0  0  0  0
    5.2744   -1.2049    0.0000 C   0  0  0  0  0  0  0  0  0  0  0  0
    4.9389   -1.9586    0.0000 C   0  0  0  0  0  0  0  0  0  0  0  0
    4.1184   -2.0448    0.0000 C   0  0  0  0  0  0  0  0  0  0  0  0
    3.6335   -1.3774    0.0000 C   0  0  0  0  0  0  0  0  0  0  0  0
  2  3  1  0  0  0  0
  3  4  1  0  0  0  0
  4  5  1  0  0  0  0
  5  6  2  0  0  0  0
  6  7  1  0  0  0  0
  7  8  1  0  0  0  0
  4  8  2  0  0  0  0
  6  9  1  0  0  0  0
  9 10  2  0  0  0  0
 10 11  1  0  0  0  0
 11 12  2  0  0  0  0
 12 13  1  0  0  0  0
 13 14  2  0  0  0  0
  9 14  1  0  0  0  0
M  END
>  <Catalog ID>
Z1954800771

>  <PlateID>
1198308-R-SPFL-15

>  <Well>
H09

>  <MW (desalted)>
174.199

>  <ClogP>
1.171

>  <HBD>
1

>  <TPSA>
52.050

>  <RotBonds>
2

$$$$

            

 11 11  0  0  0  0            999 V2000
    0.0000    2.4750    0.0000 C   0  0  0  0  0  0  0  0  0  0  0  0
    0.7145    2.0625    0.0000 O   0  0  0  0  0  0  0  0  0  0  0  0
    0.7145    1.2375    0.0000 C   0  0  0  0  0  0  0  0  0  0  0  0
    1.4289    0.8250    0.0000 C   0  0  0  0  0  0  0  0  0  0  0  0
    1.4289   -0.0000    0.0000 C   0  0  0  0  0  0  0  0  0  0  0  0
    2.1434   -0.4125    0.0000 C   0  0  0  0  0  0  0  0  0  0  0  0
    2.1434   -1.2375    0.0000 C   0  0  0  0  0  0  0  0  0  0  0  0
    2.8579   -1.6500    0.0000 N   0  0  0  0  0  0  0  0  0  0  0  0
    0.7145   -0.4125    0.0000 C   0  0  0  0  0  0  0  0  0  0  0  0
    0.0000    0.0000    0.0000 C   0  0  0  0  0  0  0  0  0  0  0  0
    0.0000    0.8250    0.0000 N   0  0  0  0  0  0  0  0  0  0  0  0
  1  2  1  0  0  0  0
  2  3  1  0  0  0  0
  3  4  2  0  0  0  0
  4  5  1  0  0  0  0
  5  6  1  0  0  0  0
  6  7  1  0  0  0  0
  7  8  1  0  0  0  0
  5  9  2  0  0  0  0
  9 10  1  0  0  0  0
 10 11  2  0  0  0  0
  3 11  1  0  0  0  0
M  END
>  <Catalog ID>
Z1198277784

>  <PlateID>
1198308-R-SPFL-15

>  <Well>
H10

>  <MW (desalted)>
152.194

>  <ClogP>
0.756

>  <HBD>
1

>  <TPSA>
48.140

>  <RotBonds>
3

$$$$

            

 16 17  0  0  0  0            999 V2000
   -0.8212    8.4777    0.0000 C   0  0  0  0  0  0  0  0  0  0  0  0
   -0.1067    8.0652    0.0000 C   0  0  0  0  0  0  0  0  0  0  0  0
    0.6078    8.4777    0.0000 C   0  0  0  0  0  0  0  0  0  0  0  0
    1.3222    8.0652    0.0000 C   0  0  0  0  0  0  0  0  0  0  0  0
    1.3222    7.2402    0.0000 C   0  0  0  0  0  0  0  0  0  0  0  0
    2.0367    6.8277    0.0000 N   0  0  0  0  0  0  0  0  0  0  0  0
    2.0367    6.0027    0.0000 C   0  0  0  0  0  0  0  0  0  0  0  0
    1.3222    5.5902    0.0000 O   0  0  0  0  0  0  0  0  0  0  0  0
    2.7512    5.5902    0.0000 C   0  0  0  0  0  0  0  0  0  0  0  0
    2.7512    4.7652    0.0000 N   0  0  0  0  0  0  0  0  0  0  0  0
    3.4186    4.2803    0.0000 C   0  0  0  0  0  0  0  0  0  0  0  0
    3.1637    3.4956    0.0000 N   0  0  0  0  0  0  0  0  0  0  0  0
    2.3387    3.4956    0.0000 C   0  0  0  0  0  0  0  0  0  0  0  0
    2.0837    4.2803    0.0000 N   0  0  0  0  0  0  0  0  0  0  0  0
    0.6078    6.8277    0.0000 C   0  0  0  0  0  0  0  0  0  0  0  0
   -0.1067    7.2402    0.0000 C   0  0  0  0  0  0  0  0  0  0  0  0
  1  2  1  0  0  0  0
  2  3  2  0  0  0  0
  3  4  1  0  0  0  0
  4  5  2  0  0  0  0
  5  6  1  0  0  0  0
  6  7  1  0  0  0  0
  7  8  2  0  0  0  0
  7  9  1  0  0  0  0
  9 10  1  0  0  0  0
 10 11  1  0  0  0  0
 11 12  2  0  0  0  0
 12 13  1  0  0  0  0
 13 14  2  0  0  0  0
 10 14  1  0  0  0  0
  5 15  1  0  0  0  0
 15 16  2  0  0  0  0
  2 16  1  0  0  0  0
M  END
>  <Catalog ID>
Z28133739

>  <PlateID>
1198308-R-SPFL-15

>  <Well>
H11

>  <MW (desalted)>
216.239

>  <ClogP>
0.718

>  <HBD>
1

>  <TPSA>
59.810

>  <RotBonds>
3

$$$$

            

 10 10  0  0  0  0            999 V2000
    0.0000    3.3000    0.0000 C   0  0  0  0  0  0  0  0  0  0  0  0
    0.0000    2.4750    0.0000 C   0  0  0  0  0  0  0  0  0  0  0  0
   -0.7145    2.0625    0.0000 C   0  0  0  0  0  0  0  0  0  0  0  0
    0.7145    2.0625    0.0000 O   0  0  0  0  0  0  0  0  0  0  0  0
    0.7145    1.2375    0.0000 C   0  0  0  0  0  0  0  0  0  0  0  0
    1.4289    0.8250    0.0000 C   0  0  0  0  0  0  0  0  0  0  0  0
    1.4289   -0.0000    0.0000 C   0  0  0  0  0  0  0  0  0  0  0  0
    0.7145   -0.4125    0.0000 N   0  0  0  0  0  0  0  0  0  0  0  0
    0.0000    0.0000    0.0000 C   0  0  0  0  0  0  0  0  0  0  0  0
    0.0000    0.8250    0.0000 C   0  0  0  0  0  0  0  0  0  0  0  0
  1  2  1  0  0  0  0
  2  3  1  0  0  0  0
  2  4  1  0  0  0  0
  4  5  1  0  0  0  0
  5  6  1  0  0  0  0
  6  7  1  0  0  0  0
  7  8  1  0  0  0  0
  8  9  1  0  0  0  0
  9 10  1  0  0  0  0
  5 10  1  0  0  0  0
M  END
>  <Catalog ID>
Z317269000

>  <PlateID>
1198308-R-SPFL-16

>  <Well>
A02

>  <MW (desalted)>
143.227

>  <ClogP>
0.262

>  <HBD>
1

>  <TPSA>
21.260

>  <RotBonds>
2

$$$$

            

 13 13  0  0  0  0            999 V2000
    0.0000    2.4750    0.0000 N   0  0  0  0  0  0  0  0  0  0  0  0
    0.7145    2.0625    0.0000 C   0  0  0  0  0  0  0  0  0  0  0  0
    1.4289    2.4750    0.0000 O   0  0  0  0  0  0  0  0  0  0  0  0
    0.7145    1.2375    0.0000 C   0  0  0  0  0  0  0  0  0  0  0  0
    1.4289    0.8250    0.0000 C   0  0  0  0  0  0  0  0  0  0  0  0
    1.4289   -0.0000    0.0000 C   0  0  0  0  0  0  0  0  0  0  0  0
    0.7145   -0.4125    0.0000 C   0  0  0  0  0  0  0  0  0  0  0  0
    0.0000    0.0000    0.0000 N   0  0  0  0  0  0  0  0  0  0  0  0
    0.0000    0.8250    0.0000 C   0  0  0  0  0  0  0  0  0  0  0  0
    0.7145   -1.2375    0.0000 C   0  0  0  0  0  0  0  0  0  0  0  0
    0.7145   -2.0625    0.0000 F   0  0  0  0  0  0  0  0  0  0  0  0
   -0.1105   -1.2375    0.0000 F   0  0  0  0  0  0  0  0  0  0  0  0
    1.5395   -1.2375    0.0000 F   0  0  0  0  0  0  0  0  0  0  0  0
  1  2  1  0  0  0  0
  2  3  2  0  0  0  0
  2  4  1  0  0  0  0
  4  5  2  0  0  0  0
  5  6  1  0  0  0  0
  6  7  2  0  0  0  0
  7  8  1  0  0  0  0
  8  9  2  0  0  0  0
  4  9  1  0  0  0  0
  7 10  1  0  0  0  0
 10 11  1  0  0  0  0
 10 12  1  0  0  0  0
 10 13  1  0  0  0  0
M  END
>  <Catalog ID>
Z246806912

>  <PlateID>
1198308-R-SPFL-16

>  <Well>
A03

>  <MW (desalted)>
190.123

>  <ClogP>
0.762

>  <HBD>
1

>  <TPSA>
55.980

>  <RotBonds>
2

$$$$

            

 12 13  0  0  1  0            999 V2000
    1.9341   -0.5333    0.0000 O   0  0  0  0  0  0  0  0  0  0  0  0
    1.9341   -1.3583    0.0000 C   0  0  1  0  0  0  0  0  0  0  0  0
    2.5175   -1.9417    0.0000 C   0  0  0  0  0  0  0  0  0  0  0  0
    1.9341   -2.5250    0.0000 C   0  0  1  0  0  0  0  0  0  0  0  0
    1.3508   -1.9417    0.0000 C   0  0  0  0  0  0  0  0  0  0  0  0
    1.9341   -3.3500    0.0000 O   0  0  0  0  0  0  0  0  0  0  0  0
    1.2197   -3.7625    0.0000 C   0  0  0  0  0  0  0  0  0  0  0  0
    1.2197   -4.5875    0.0000 C   0  0  0  0  0  0  0  0  0  0  0  0
    0.5052   -5.0000    0.0000 C   0  0  0  0  0  0  0  0  0  0  0  0
   -0.2093   -4.5875    0.0000 C   0  0  0  0  0  0  0  0  0  0  0  0
   -0.2093   -3.7625    0.0000 C   0  0  0  0  0  0  0  0  0  0  0  0
    0.5052   -3.3500    0.0000 C   0  0  0  0  0  0  0  0  0  0  0  0
  2  1  1  1  0  0  0
  2  3  1  0  0  0  0
  4  3  1  0  0  0  0
  4  5  1  0  0  0  0
  2  5  1  0  0  0  0
  4  6  1  6  0  0  0
  6  7  1  0  0  0  0
  7  8  2  0  0  0  0
  8  9  1  0  0  0  0
  9 10  2  0  0  0  0
 10 11  1  0  0  0  0
 11 12  2  0  0  0  0
  7 12  1  0  0  0  0
M  END
>  <Catalog ID>
Z2474671129

>  <PlateID>
1198308-R-SPFL-16

>  <Well>
A04

>  <MW (desalted)>
164.201

>  <ClogP>
1.787

>  <HBD>
1

>  <TPSA>
29.460

>  <RotBonds>
2

$$$$

            

 14 15  0  0  0  0            999 V2000
    0.7145   -0.4125    0.0000 N   0  0  0  0  0  0  0  0  0  0  0  0
    0.7145   -1.2375    0.0000 C   0  0  0  0  0  0  0  0  0  0  0  0
    1.3819   -1.7224    0.0000 O   0  0  0  0  0  0  0  0  0  0  0  0
    1.1270   -2.5070    0.0000 N   0  0  0  0  0  0  0  0  0  0  0  0
    0.3020   -2.5070    0.0000 C   0  0  0  0  0  0  0  0  0  0  0  0
    0.0470   -1.7224    0.0000 C   0  0  0  0  0  0  0  0  0  0  0  0
   -0.7376   -1.4675    0.0000 C   0  0  0  0  0  0  0  0  0  0  0  0
   -1.3507   -2.0195    0.0000 C   0  0  0  0  0  0  0  0  0  0  0  0
   -2.1353   -1.7646    0.0000 C   0  0  0  0  0  0  0  0  0  0  0  0
   -2.3068   -0.9576    0.0000 C   0  0  0  0  0  0  0  0  0  0  0  0
   -3.0915   -0.7027    0.0000 F   0  0  0  0  0  0  0  0  0  0  0  0
   -1.6937   -0.4056    0.0000 C   0  0  0  0  0  0  0  0  0  0  0  0
   -0.9091   -0.6605    0.0000 C   0  0  0  0  0  0  0  0  0  0  0  0
   -0.2960   -0.1085    0.0000 F   0  0  0  0  0  0  0  0  0  0  0  0
  1  2  1  0  0  0  0
  2  3  1  0  0  0  0
  3  4  1  0  0  0  0
  4  5  2  0  0  0  0
  5  6  1  0  0  0  0
  2  6  2  0  0  0  0
  6  7  1  0  0  0  0
  7  8  2  0  0  0  0
  8  9  1  0  0  0  0
  9 10  2  0  0  0  0
 10 11  1  0  0  0  0
 10 12  1  0  0  0  0
 12 13  2  0  0  0  0
  7 13  1  0  0  0  0
 13 14  1  0  0  0  0
M  END
>  <Catalog ID>
Z1238483745

>  <PlateID>
1198308-R-SPFL-16

>  <Well>
A05

>  <MW (desalted)>
196.154

>  <ClogP>
1.963

>  <HBD>
1

>  <TPSA>
52.050

>  <RotBonds>
1

$$$$

            

 13 14  0  0  0  0            999 V2000
    0.0000   -0.0000    0.0000 C   0  0  0  0  0  0  0  0  0  0  0  0
    0.7145   -0.4125    0.0000 C   0  0  0  0  0  0  0  0  0  0  0  0
    1.4289    0.0000    0.0000 N   0  0  0  0  0  0  0  0  0  0  0  0
    2.1434   -0.4125    0.0000 C   0  0  0  0  0  0  0  0  0  0  0  0
    2.8579    0.0000    0.0000 C   0  0  0  0  0  0  0  0  0  0  0  0
    2.8579    0.8250    0.0000 F   0  0  0  0  0  0  0  0  0  0  0  0
    3.5724   -0.4125    0.0000 C   0  0  0  0  0  0  0  0  0  0  0  0
    3.5724   -1.2375    0.0000 C   0  0  0  0  0  0  0  0  0  0  0  0
    2.8579   -1.6500    0.0000 C   0  0  0  0  0  0  0  0  0  0  0  0
    2.1434   -1.2375    0.0000 C   0  0  0  0  0  0  0  0  0  0  0  0
    1.4289   -1.6500    0.0000 C   0  0  0  0  0  0  0  0  0  0  0  0
    0.7145   -1.2375    0.0000 C   0  0  0  0  0  0  0  0  0  0  0  0
    0.0000   -1.6500    0.0000 O   0  0  0  0  0  0  0  0  0  0  0  0
  1  2  1  0  0  0  0
  2  3  2  0  0  0  0
  3  4  1  0  0  0  0
  4  5  2  0  0  0  0
  5  6  1  0  0  0  0
  5  7  1  0  0  0  0
  7  8  2  0  0  0  0
  8  9  1  0  0  0  0
  9 10  2  0  0  0  0
  4 10  1  0  0  0  0
 10 11  1  0  0  0  0
 11 12  2  0  0  0  0
  2 12  1  0  0  0  0
 12 13  1  0  0  0  0
M  END
>  <Catalog ID>
Z3300757756

>  <PlateID>
1198308-R-SPFL-16

>  <Well>
A06

>  <MW (desalted)>
177.175

>  <ClogP>
3.005

>  <HBD>
1

>  <TPSA>
33.120

>  <RotBonds>
0

$$$$

            

 11 12  0  0  0  0            999 V2000
    1.4289   -2.4750    0.0000 N   0  0  0  0  0  0  0  0  0  0  0  0
    1.4289   -1.6500    0.0000 C   0  0  0  0  0  0  0  0  0  0  0  0
    0.7145   -1.2375    0.0000 N   0  0  0  0  0  0  0  0  0  0  0  0
    0.7145   -0.4125    0.0000 C   0  0  0  0  0  0  0  0  0  0  0  0
    1.4289    0.0000    0.0000 C   0  0  0  0  0  0  0  0  0  0  0  0
    2.1434   -0.4125    0.0000 C   0  0  0  0  0  0  0  0  0  0  0  0
    2.8579    0.0000    0.0000 C   0  0  0  0  0  0  0  0  0  0  0  0
    3.5724   -0.4125    0.0000 N   0  0  0  0  0  0  0  0  0  0  0  0
    3.5724   -1.2375    0.0000 C   0  0  0  0  0  0  0  0  0  0  0  0
    2.8579   -1.6500    0.0000 C   0  0  0  0  0  0  0  0  0  0  0  0
    2.1434   -1.2375    0.0000 C   0  0  0  0  0  0  0  0  0  0  0  0
  1  2  1  0  0  0  0
  2  3  2  0  0  0  0
  3  4  1  0  0  0  0
  4  5  2  0  0  0  0
  5  6  1  0  0  0  0
  6  7  2  0  0  0  0
  7  8  1  0  0  0  0
  8  9  2  0  0  0  0
  9 10  1  0  0  0  0
 10 11  2  0  0  0  0
  2 11  1  0  0  0  0
  6 11  1  0  0  0  0
M  END
>  <Catalog ID>
Z1198323546

>  <PlateID>
1198308-R-SPFL-16

>  <Well>
A07

>  <MW (desalted)>
145.161

>  <ClogP>
0.636

>  <HBD>
1

>  <TPSA>
51.800

>  <RotBonds>
0

$$$$

            

 14 15  0  0  0  0            999 V2000
    1.4289   -0.0000    0.0000 O   0  0  0  0  0  0  0  0  0  0  0  0
    0.7145   -0.4125    0.0000 C   0  0  0  0  0  0  0  0  0  0  0  0
    0.7145   -1.2375    0.0000 C   0  0  0  0  0  0  0  0  0  0  0  0
    1.3819   -1.7224    0.0000 N   0  0  0  0  0  0  0  0  0  0  0  0
    1.1270   -2.5070    0.0000 O   0  0  0  0  0  0  0  0  0  0  0  0
    0.3020   -2.5070    0.0000 C   0  0  0  0  0  0  0  0  0  0  0  0
    0.0470   -1.7224    0.0000 C   0  0  0  0  0  0  0  0  0  0  0  0
   -0.7376   -1.4675    0.0000 C   0  0  0  0  0  0  0  0  0  0  0  0
   -1.3507   -2.0195    0.0000 C   0  0  0  0  0  0  0  0  0  0  0  0
   -2.1353   -1.7646    0.0000 C   0  0  0  0  0  0  0  0  0  0  0  0
   -2.3068   -0.9576    0.0000 C   0  0  0  0  0  0  0  0  0  0  0  0
   -3.0915   -0.7027    0.0000 Cl  0  0  0  0  0  0  0  0  0  0  0  0
   -1.6937   -0.4056    0.0000 C   0  0  0  0  0  0  0  0  0  0  0  0
   -0.9091   -0.6605    0.0000 C   0  0  0  0  0  0  0  0  0  0  0  0
  1  2  1  0  0  0  0
  2  3  1  0  0  0  0
  3  4  2  0  0  0  0
  4  5  1  0  0  0  0
  5  6  1  0  0  0  0
  6  7  2  0  0  0  0
  3  7  1  0  0  0  0
  7  8  1  0  0  0  0
  8  9  2  0  0  0  0
  9 10  1  0  0  0  0
 10 11  2  0  0  0  0
 11 12  1  0  0  0  0
 11 13  1  0  0  0  0
 13 14  2  0  0  0  0
  8 14  1  0  0  0  0
M  END
>  <Catalog ID>
Z3668154052

>  <PlateID>
1198308-R-SPFL-16

>  <Well>
A08

>  <MW (desalted)>
209.629

>  <ClogP>
1.415

>  <HBD>
1

>  <TPSA>
46.260

>  <RotBonds>
2

$$$$

            

 14 15  0  0  0  0            999 V2000
    0.0000   -2.4750    0.0000 O   0  0  0  0  0  0  0  0  0  0  0  0
    0.0000   -1.6500    0.0000 C   0  0  0  0  0  0  0  0  0  0  0  0
   -0.7145   -1.2375    0.0000 O   0  0  0  0  0  0  0  0  0  0  0  0
    0.7145   -1.2375    0.0000 C   0  0  0  0  0  0  0  0  0  0  0  0
    0.7145   -0.4125    0.0000 C   0  0  0  0  0  0  0  0  0  0  0  0
    1.4289    0.0000    0.0000 C   0  0  0  0  0  0  0  0  0  0  0  0
    2.1434   -0.4125    0.0000 C   0  0  0  0  0  0  0  0  0  0  0  0
    2.8579    0.0000    0.0000 C   0  0  0  0  0  0  0  0  0  0  0  0
    3.5724   -0.4125    0.0000 C   0  0  0  0  0  0  0  0  0  0  0  0
    4.2868   -0.0000    0.0000 F   0  0  0  0  0  0  0  0  0  0  0  0
    3.5724   -1.2375    0.0000 C   0  0  0  0  0  0  0  0  0  0  0  0
    2.8579   -1.6500    0.0000 C   0  0  0  0  0  0  0  0  0  0  0  0
    2.1434   -1.2375    0.0000 C   0  0  0  0  0  0  0  0  0  0  0  0
    1.4289   -1.6500    0.0000 N   0  0  0  0  0  0  0  0  0  0  0  0
  1  2  1  0  0  0  0
  2  3  2  0  0  0  0
  2  4  1  0  0  0  0
  4  5  1  0  0  0  0
  5  6  2  0  0  0  0
  6  7  1  0  0  0  0
  7  8  2  0  0  0  0
  8  9  1  0  0  0  0
  9 10  1  0  0  0  0
  9 11  2  0  0  0  0
 11 12  1  0  0  0  0
 12 13  2  0  0  0  0
  7 13  1  0  0  0  0
 13 14  1  0  0  0  0
  4 14  2  0  0  0  0
M  END
>  <Catalog ID>
Z1198233893

>  <PlateID>
1198308-R-SPFL-16

>  <Well>
A09

>  <MW (desalted)>
191.159

>  <ClogP>
2.558

>  <HBD>
1

>  <TPSA>
50.190

>  <RotBonds>
1

$$$$

            

 13 14  0  0  0  0            999 V2000
    0.8838   -2.1500    0.0000 C   0  0  0  0  0  0  0  0  0  0  0  0
    1.1387   -1.3654    0.0000 N   0  0  0  0  0  0  0  0  0  0  0  0
    0.6538   -0.6979    0.0000 C   0  0  0  0  0  0  0  0  0  0  0  0
    1.1387   -0.0305    0.0000 C   0  0  0  0  0  0  0  0  0  0  0  0
    1.9233   -0.2854    0.0000 C   0  0  0  0  0  0  0  0  0  0  0  0
    2.6378    0.1271    0.0000 C   0  0  0  0  0  0  0  0  0  0  0  0
    3.3523   -0.2854    0.0000 C   0  0  0  0  0  0  0  0  0  0  0  0
    3.3523   -1.1104    0.0000 C   0  0  0  0  0  0  0  0  0  0  0  0
    2.6378   -1.5229    0.0000 C   0  0  0  0  0  0  0  0  0  0  0  0
    1.9233   -1.1104    0.0000 C   0  0  0  0  0  0  0  0  0  0  0  0
    4.0668    0.1271    0.0000 C   0  0  0  0  0  0  0  0  0  0  0  0
    4.0668    0.9521    0.0000 O   0  0  0  0  0  0  0  0  0  0  0  0
    4.7812   -0.2854    0.0000 O   0  0  0  0  0  0  0  0  0  0  0  0
  1  2  1  0  0  0  0
  2  3  1  0  0  0  0
  3  4  2  0  0  0  0
  4  5  1  0  0  0  0
  5  6  2  0  0  0  0
  6  7  1  0  0  0  0
  7  8  2  0  0  0  0
  8  9  1  0  0  0  0
  9 10  2  0  0  0  0
  2 10  1  0  0  0  0
  5 10  1  0  0  0  0
  7 11  1  0  0  0  0
 11 12  2  0  0  0  0
 11 13  1  0  0  0  0
M  END
>  <Catalog ID>
Z1154255784

>  <PlateID>
1198308-R-SPFL-16

>  <Well>
A10

>  <MW (desalted)>
175.184

>  <ClogP>
2.468

>  <HBD>
1

>  <TPSA>
42.230

>  <RotBonds>
1

$$$$

            

  8  8  0  0  0  0            999 V2000
    0.7145    2.0625    0.0000 C   0  0  0  0  0  0  0  0  0  0  0  0
    0.7145    1.2375    0.0000 C   0  0  0  0  0  0  0  0  0  0  0  0
    1.4289    0.8250    0.0000 N   0  0  0  0  0  0  0  0  0  0  0  0
    1.4289   -0.0000    0.0000 C   0  0  0  0  0  0  0  0  0  0  0  0
    0.7145   -0.4125    0.0000 C   0  0  0  0  0  0  0  0  0  0  0  0
    0.0000    0.0000    0.0000 N   0  0  0  0  0  0  0  0  0  0  0  0
    0.0000    0.8250    0.0000 C   0  0  0  0  0  0  0  0  0  0  0  0
   -0.7145    1.2375    0.0000 N   0  0  0  0  0  0  0  0  0  0  0  0
  1  2  1  0  0  0  0
  2  3  2  0  0  0  0
  3  4  1  0  0  0  0
  4  5  2  0  0  0  0
  5  6  1  0  0  0  0
  6  7  2  0  0  0  0
  2  7  1  0  0  0  0
  7  8  1  0  0  0  0
M  END
>  <Catalog ID>
Z1198181978

>  <PlateID>
1198308-R-SPFL-16

>  <Well>
A11

>  <MW (desalted)>
109.129

>  <ClogP>
0.125

>  <HBD>
1

>  <TPSA>
51.800

>  <RotBonds>
0

$$$$

            

 14 14  0  0  0  0            999 V2000
    0.0000    0.0000    0.0000 Cl  0  0  0  0  0  0  0  0  0  0  0  0
    2.3571    0.3423    0.0000 C   0  0  0  0  0  0  0  0  0  0  0  0
    3.1418    0.5972    0.0000 N   0  0  0  0  0  0  0  0  0  0  0  0
    3.3967    1.3818    0.0000 N   0  0  0  0  0  0  0  0  0  0  0  0
    4.2217    1.3818    0.0000 C   0  0  0  0  0  0  0  0  0  0  0  0
    4.4766    0.5972    0.0000 C   0  0  0  0  0  0  0  0  0  0  0  0
    5.2613    0.3423    0.0000 C   0  0  0  0  0  0  0  0  0  0  0  0
    5.8744    0.8943    0.0000 O   0  0  0  0  0  0  0  0  0  0  0  0
    5.4328   -0.4647    0.0000 O   0  0  0  0  0  0  0  0  0  0  0  0
    3.8092    0.1123    0.0000 C   0  0  0  0  0  0  0  0  0  0  0  0
    3.8092   -0.7127    0.0000 C   0  0  0  0  0  0  0  0  0  0  0  0
    4.3926   -1.2961    0.0000 C   0  0  0  0  0  0  0  0  0  0  0  0
    3.8092   -1.8795    0.0000 C   0  0  0  0  0  0  0  0  0  0  0  0
    3.2258   -1.2961    0.0000 C   0  0  0  0  0  0  0  0  0  0  0  0
  2  3  1  0  0  0  0
  3  4  1  0  0  0  0
  4  5  2  0  0  0  0
  5  6  1  0  0  0  0
  6  7  1  0  0  0  0
  7  8  2  0  0  0  0
  7  9  1  0  0  0  0
  6 10  2  0  0  0  0
  3 10  1  0  0  0  0
 10 11  1  0  0  0  0
 11 12  1  0  0  0  0
 12 13  1  0  0  0  0
 13 14  1  0  0  0  0
 11 14  1  0  0  0  0
M  END
>  <Catalog ID>
Z2310693585

>  <PlateID>
1198308-R-SPFL-16

>  <Well>
B02

>  <MW (desalted)>
180.204

>  <ClogP>
0.433

>  <HBD>
1

>  <TPSA>
55.120

>  <RotBonds>
2

$$$$

            

 14 15  0  0  0  0            999 V2000
    1.3222   -0.0616    0.0000 O   0  0  0  0  0  0  0  0  0  0  0  0
    1.3222    0.7634    0.0000 C   0  0  0  0  0  0  0  0  0  0  0  0
    2.0367    1.1759    0.0000 C   0  0  0  0  0  0  0  0  0  0  0  0
    2.0367    2.0009    0.0000 C   0  0  0  0  0  0  0  0  0  0  0  0
    2.7512    2.4134    0.0000 C   0  0  0  0  0  0  0  0  0  0  0  0
    3.4656    2.0009    0.0000 C   0  0  0  0  0  0  0  0  0  0  0  0
    4.1801    2.4134    0.0000 Cl  0  0  0  0  0  0  0  0  0  0  0  0
    3.4656    1.1759    0.0000 C   0  0  0  0  0  0  0  0  0  0  0  0
    2.7512    0.7634    0.0000 C   0  0  0  0  0  0  0  0  0  0  0  0
    2.7512   -0.0616    0.0000 N   0  0  0  0  0  0  0  0  0  0  0  0
    3.4186   -0.5465    0.0000 C   0  0  0  0  0  0  0  0  0  0  0  0
    3.1637   -1.3312    0.0000 N   0  0  0  0  0  0  0  0  0  0  0  0
    2.3387   -1.3312    0.0000 C   0  0  0  0  0  0  0  0  0  0  0  0
    2.0837   -0.5465    0.0000 N   0  0  0  0  0  0  0  0  0  0  0  0
  1  2  1  0  0  0  0
  2  3  1  0  0  0  0
  3  4  2  0  0  0  0
  4  5  1  0  0  0  0
  5  6  2  0  0  0  0
  6  7  1  0  0  0  0
  6  8  1  0  0  0  0
  8  9  2  0  0  0  0
  3  9  1  0  0  0  0
  9 10  1  0  0  0  0
 10 11  1  0  0  0  0
 11 12  2  0  0  0  0
 12 13  1  0  0  0  0
 13 14  2  0  0  0  0
 10 14  1  0  0  0  0
M  END
>  <Catalog ID>
Z1763039592

>  <PlateID>
1198308-R-SPFL-16

>  <Well>
B03

>  <MW (desalted)>
209.632

>  <ClogP>
0.884

>  <HBD>
1

>  <TPSA>
50.940

>  <RotBonds>
2

$$$$

            

 13 12  0  0  0  0            999 V2000
    0.0000    0.0000    0.0000 Cl  0  0  0  0  0  0  0  0  0  0  0  0
    2.0036    0.0000    0.0000 Cl  0  0  0  0  0  0  0  0  0  0  0  0
    0.7145   -2.0625    0.0000 C   0  0  0  0  0  0  0  0  0  0  0  0
    0.7145   -2.8875    0.0000 C   0  0  0  0  0  0  0  0  0  0  0  0
    0.0000   -3.3000    0.0000 C   0  0  0  0  0  0  0  0  0  0  0  0
   -0.7145   -2.8875    0.0000 C   0  0  0  0  0  0  0  0  0  0  0  0
   -0.7145   -2.0625    0.0000 C   0  0  0  0  0  0  0  0  0  0  0  0
   -0.0000   -1.6500    0.0000 N   0  0  0  0  0  0  0  0  0  0  0  0
   -0.0000   -4.1250    0.0000 N   0  0  0  0  0  0  0  0  0  0  0  0
    0.6674   -4.6099    0.0000 C   0  0  0  0  0  0  0  0  0  0  0  0
    0.4125   -5.3945    0.0000 C   0  0  0  0  0  0  0  0  0  0  0  0
   -0.4125   -5.3945    0.0000 C   0  0  0  0  0  0  0  0  0  0  0  0
   -0.6674   -4.6099    0.0000 N   0  0  0  0  0  0  0  0  0  0  0  0
  3  4  1  0  0  0  0
  4  5  1  0  0  0  0
  5  6  1  0  0  0  0
  6  7  1  0  0  0  0
  7  8  1  0  0  0  0
  3  8  1  0  0  0  0
  5  9  1  0  0  0  0
  9 10  1  0  0  0  0
 10 11  2  0  0  0  0
 11 12  1  0  0  0  0
 12 13  2  0  0  0  0
  9 13  1  0  0  0  0
M  END
>  <Catalog ID>
Z432052514

>  <PlateID>
1198308-R-SPFL-16

>  <Well>
B04

>  <MW (desalted)>
151.209

>  <ClogP>
-0.131

>  <HBD>
1

>  <TPSA>
29.850

>  <RotBonds>
1

$$$$

            

 11 12  0  0  0  0            999 V2000
    1.4289   -2.4750    0.0000 O   0  0  0  0  0  0  0  0  0  0  0  0
    1.4289   -1.6500    0.0000 C   0  0  0  0  0  0  0  0  0  0  0  0
    0.7145   -1.2375    0.0000 N   0  0  0  0  0  0  0  0  0  0  0  0
    0.7145   -0.4125    0.0000 N   0  0  0  0  0  0  0  0  0  0  0  0
    1.4289    0.0000    0.0000 C   0  0  0  0  0  0  0  0  0  0  0  0
    2.1434   -0.4125    0.0000 C   0  0  0  0  0  0  0  0  0  0  0  0
    2.8579    0.0000    0.0000 C   0  0  0  0  0  0  0  0  0  0  0  0
    3.5724   -0.4125    0.0000 C   0  0  0  0  0  0  0  0  0  0  0  0
    3.5724   -1.2375    0.0000 C   0  0  0  0  0  0  0  0  0  0  0  0
    2.8579   -1.6500    0.0000 C   0  0  0  0  0  0  0  0  0  0  0  0
    2.1434   -1.2375    0.0000 C   0  0  0  0  0  0  0  0  0  0  0  0
  1  2  1  0  0  0  0
  2  3  1  0  0  0  0
  3  4  2  0  0  0  0
  4  5  1  0  0  0  0
  5  6  2  0  0  0  0
  6  7  1  0  0  0  0
  7  8  2  0  0  0  0
  8  9  1  0  0  0  0
  9 10  2  0  0  0  0
 10 11  1  0  0  0  0
  2 11  2  0  0  0  0
  6 11  1  0  0  0  0
M  END
>  <Catalog ID>
Z203045280

>  <PlateID>
1198308-R-SPFL-16

>  <Well>
B05

>  <MW (desalted)>
146.146

>  <ClogP>
1.356

>  <HBD>
1

>  <TPSA>
46.010

>  <RotBonds>
0

$$$$

            

 15 16  0  0  0  0            999 V2000
    0.0000   -0.0000    0.0000 O   0  0  0  0  0  0  0  0  0  0  0  0
    0.7145   -0.4125    0.0000 C   0  0  0  0  0  0  0  0  0  0  0  0
    1.4289   -0.0000    0.0000 O   0  0  0  0  0  0  0  0  0  0  0  0
    0.7145   -1.2375    0.0000 C   0  0  0  0  0  0  0  0  0  0  0  0
    0.0470   -1.7224    0.0000 C   0  0  0  0  0  0  0  0  0  0  0  0
    0.3020   -2.5070    0.0000 O   0  0  0  0  0  0  0  0  0  0  0  0
    1.1270   -2.5070    0.0000 N   0  0  0  0  0  0  0  0  0  0  0  0
    1.3819   -1.7224    0.0000 C   0  0  0  0  0  0  0  0  0  0  0  0
    2.1665   -1.4675    0.0000 C   0  0  0  0  0  0  0  0  0  0  0  0
    2.3381   -0.6605    0.0000 C   0  0  0  0  0  0  0  0  0  0  0  0
    3.1227   -0.4056    0.0000 C   0  0  0  0  0  0  0  0  0  0  0  0
    3.7358   -0.9576    0.0000 C   0  0  0  0  0  0  0  0  0  0  0  0
    3.5642   -1.7646    0.0000 C   0  0  0  0  0  0  0  0  0  0  0  0
    2.7796   -2.0195    0.0000 C   0  0  0  0  0  0  0  0  0  0  0  0
    2.6081   -2.8265    0.0000 Cl  0  0  0  0  0  0  0  0  0  0  0  0
  1  2  1  0  0  0  0
  2  3  2  0  0  0  0
  2  4  1  0  0  0  0
  4  5  2  0  0  0  0
  5  6  1  0  0  0  0
  6  7  1  0  0  0  0
  7  8  2  0  0  0  0
  4  8  1  0  0  0  0
  8  9  1  0  0  0  0
  9 10  2  0  0  0  0
 10 11  1  0  0  0  0
 11 12  2  0  0  0  0
 12 13  1  0  0  0  0
 13 14  2  0  0  0  0
  9 14  1  0  0  0  0
 14 15  1  0  0  0  0
M  END
>  <Catalog ID>
Z1509690352

>  <PlateID>
1198308-R-SPFL-16

>  <Well>
B06

>  <MW (desalted)>
223.613

>  <ClogP>
2.112

>  <HBD>
1

>  <TPSA>
63.330

>  <RotBonds>
2

$$$$

            

  0  0  0     0  0            999 V3000
M  V30 BEGIN CTAB
M  V30 COUNTS 14 15 0 0 0
M  V30 BEGIN ATOM
M  V30 1 Cl 0 0 0 0
M  V30 2 C 5.2663 1.5865 0 0
M  V30 3 C 6.6 2.3565 0 0 CFG=2
M  V30 4 C 7.9337 3.1265 0 0
M  V30 5 N 9.2674 2.3565 0 0
M  V30 6 C 9.2674 0.8165 0 0
M  V30 7 C 7.9337 0.0465 0 0
M  V30 8 C 6.6 0.8165 0 0 CFG=2
M  V30 9 C 5.83 -0.5172 0 0
M  V30 10 C 6.6 -1.8509 0 0
M  V30 11 C 5.83 -3.1846 0 0
M  V30 12 C 4.29 -3.1846 0 0
M  V30 13 C 3.52 -1.8509 0 0
M  V30 14 C 4.29 -0.5172 0 0
M  V30 END ATOM
M  V30 BEGIN BOND
M  V30 1 1 3 2 CFG=3
M  V30 2 1 3 4
M  V30 3 1 4 5
M  V30 4 1 5 6
M  V30 5 1 6 7
M  V30 6 1 8 7
M  V30 7 1 8 2
M  V30 8 1 3 8
M  V30 9 1 8 9 CFG=1
M  V30 10 2 9 10
M  V30 11 1 10 11
M  V30 12 2 11 12
M  V30 13 1 12 13
M  V30 14 2 13 14
M  V30 15 1 9 14
M  V30 END BOND
M  V30 BEGIN COLLECTION
M  V30 MDLV30/STERAC1 ATOMS=(2 3 8)
M  V30 END COLLECTION
M  V30 END CTAB
M  END
>  <Catalog ID>
Z4328160199

>  <PlateID>
1198308-R-SPFL-16

>  <Well>
B07

>  <MW (desalted)>
173.254

>  <ClogP>
2.098

>  <HBD>
1

>  <TPSA>
12.030

>  <RotBonds>
1

$$$$

            

 14 15  0  0  0  0            999 V2000
    0.0000   -2.4750    0.0000 O   0  0  0  0  0  0  0  0  0  0  0  0
    0.0000   -1.6500    0.0000 C   0  0  0  0  0  0  0  0  0  0  0  0
   -0.7145   -1.2375    0.0000 O   0  0  0  0  0  0  0  0  0  0  0  0
    0.7145   -1.2375    0.0000 C   0  0  0  0  0  0  0  0  0  0  0  0
    0.7145   -0.4125    0.0000 C   0  0  0  0  0  0  0  0  0  0  0  0
    1.4289    0.0000    0.0000 C   0  0  0  0  0  0  0  0  0  0  0  0
    2.1434   -0.4125    0.0000 C   0  0  0  0  0  0  0  0  0  0  0  0
    2.8579    0.0000    0.0000 C   0  0  0  0  0  0  0  0  0  0  0  0
    3.5724   -0.4125    0.0000 C   0  0  0  0  0  0  0  0  0  0  0  0
    3.5724   -1.2375    0.0000 C   0  0  0  0  0  0  0  0  0  0  0  0
    2.8579   -1.6500    0.0000 C   0  0  0  0  0  0  0  0  0  0  0  0
    2.8579   -2.4750    0.0000 F   0  0  0  0  0  0  0  0  0  0  0  0
    2.1434   -1.2375    0.0000 C   0  0  0  0  0  0  0  0  0  0  0  0
    1.4289   -1.6500    0.0000 N   0  0  0  0  0  0  0  0  0  0  0  0
  1  2  1  0  0  0  0
  2  3  2  0  0  0  0
  2  4  1  0  0  0  0
  4  5  1  0  0  0  0
  5  6  2  0  0  0  0
  6  7  1  0  0  0  0
  7  8  2  0  0  0  0
  8  9  1  0  0  0  0
  9 10  2  0  0  0  0
 10 11  1  0  0  0  0
 11 12  1  0  0  0  0
 11 13  2  0  0  0  0
  7 13  1  0  0  0  0
 13 14  1  0  0  0  0
  4 14  2  0  0  0  0
M  END
>  <Catalog ID>
Z1198180952

>  <PlateID>
1198308-R-SPFL-16

>  <Well>
B08

>  <MW (desalted)>
191.159

>  <ClogP>
2.558

>  <HBD>
1

>  <TPSA>
50.190

>  <RotBonds>
1

$$$$

            

 13 14  0  0  0  0            999 V2000
    0.7145   -0.4125    0.0000 N   0  0  0  0  0  0  0  0  0  0  0  0
    0.7145   -1.2375    0.0000 C   0  0  0  0  0  0  0  0  0  0  0  0
    1.3819   -1.7224    0.0000 N   0  0  0  0  0  0  0  0  0  0  0  0
    1.1270   -2.5070    0.0000 O   0  0  0  0  0  0  0  0  0  0  0  0
    0.3020   -2.5070    0.0000 C   0  0  0  0  0  0  0  0  0  0  0  0
    0.0470   -1.7224    0.0000 N   0  0  0  0  0  0  0  0  0  0  0  0
   -0.1830   -3.1745    0.0000 C   0  0  0  0  0  0  0  0  0  0  0  0
    0.1526   -3.9282    0.0000 C   0  0  0  0  0  0  0  0  0  0  0  0
   -0.3323   -4.5956    0.0000 C   0  0  0  0  0  0  0  0  0  0  0  0
   -1.1528   -4.5094    0.0000 C   0  0  0  0  0  0  0  0  0  0  0  0
   -1.4884   -3.7557    0.0000 C   0  0  0  0  0  0  0  0  0  0  0  0
   -2.3088   -3.6695    0.0000 F   0  0  0  0  0  0  0  0  0  0  0  0
   -1.0034   -3.0882    0.0000 C   0  0  0  0  0  0  0  0  0  0  0  0
  1  2  1  0  0  0  0
  2  3  2  0  0  0  0
  3  4  1  0  0  0  0
  4  5  1  0  0  0  0
  5  6  2  0  0  0  0
  2  6  1  0  0  0  0
  5  7  1  0  0  0  0
  7  8  2  0  0  0  0
  8  9  1  0  0  0  0
  9 10  2  0  0  0  0
 10 11  1  0  0  0  0
 11 12  1  0  0  0  0
 11 13  2  0  0  0  0
  7 13  1  0  0  0  0
M  END
>  <Catalog ID>
Z1147463020

>  <PlateID>
1198308-R-SPFL-16

>  <Well>
B09

>  <MW (desalted)>
179.151

>  <ClogP>
1.718

>  <HBD>
1

>  <TPSA>
64.940

>  <RotBonds>
1

$$$$

            

 12 13  0  0  0  0            999 V2000
    4.0668    3.1729    0.0000 O   0  0  0  0  0  0  0  0  0  0  0  0
    4.0668    2.3479    0.0000 C   0  0  0  0  0  0  0  0  0  0  0  0
    4.7812    1.9354    0.0000 O   0  0  0  0  0  0  0  0  0  0  0  0
    3.3523    1.9354    0.0000 C   0  0  0  0  0  0  0  0  0  0  0  0
    3.3523    1.1104    0.0000 C   0  0  0  0  0  0  0  0  0  0  0  0
    2.6378    0.6979    0.0000 N   0  0  0  0  0  0  0  0  0  0  0  0
    1.9233    1.1104    0.0000 C   0  0  0  0  0  0  0  0  0  0  0  0
    1.1387    0.8555    0.0000 C   0  0  0  0  0  0  0  0  0  0  0  0
    0.6538    1.5229    0.0000 C   0  0  0  0  0  0  0  0  0  0  0  0
    1.1387    2.1904    0.0000 O   0  0  0  0  0  0  0  0  0  0  0  0
    1.9233    1.9354    0.0000 C   0  0  0  0  0  0  0  0  0  0  0  0
    2.6378    2.3479    0.0000 C   0  0  0  0  0  0  0  0  0  0  0  0
  1  2  1  0  0  0  0
  2  3  2  0  0  0  0
  2  4  1  0  0  0  0
  4  5  2  0  0  0  0
  5  6  1  0  0  0  0
  6  7  2  0  0  0  0
  7  8  1  0  0  0  0
  8  9  2  0  0  0  0
  9 10  1  0  0  0  0
 10 11  1  0  0  0  0
  7 11  1  0  0  0  0
 11 12  2  0  0  0  0
  4 12  1  0  0  0  0
M  END
>  <Catalog ID>
Z1201627083

>  <PlateID>
1198308-R-SPFL-16

>  <Well>
B10

>  <MW (desalted)>
163.130

>  <ClogP>
1.569

>  <HBD>
1

>  <TPSA>
63.330

>  <RotBonds>
1

$$$$

            

 13 13  0  0  0  0            999 V2000
    0.0000    0.0000    0.0000 Cl  0  0  0  0  0  0  0  0  0  0  0  0
    3.0246    0.2237    0.0000 C   0  0  0  0  0  0  0  0  0  0  0  0
    3.0246   -0.6013    0.0000 C   0  0  0  0  0  0  0  0  0  0  0  0
    3.6920   -1.0863    0.0000 C   0  0  0  0  0  0  0  0  0  0  0  0
    3.4371   -1.8709    0.0000 C   0  0  0  0  0  0  0  0  0  0  0  0
    2.6121   -1.8709    0.0000 N   0  0  0  0  0  0  0  0  0  0  0  0
    2.3571   -1.0863    0.0000 C   0  0  0  0  0  0  0  0  0  0  0  0
    3.7391    0.6362    0.0000 C   0  0  0  0  0  0  0  0  0  0  0  0
    3.7391    1.4612    0.0000 C   0  0  0  0  0  0  0  0  0  0  0  0
    4.4535    1.8737    0.0000 C   0  0  0  0  0  0  0  0  0  0  0  0
    5.1680    1.4612    0.0000 C   0  0  0  0  0  0  0  0  0  0  0  0
    5.1680    0.6362    0.0000 C   0  0  0  0  0  0  0  0  0  0  0  0
    4.4535    0.2237    0.0000 C   0  0  0  0  0  0  0  0  0  0  0  0
  2  3  1  0  0  0  0
  3  4  1  0  0  0  0
  4  5  1  0  0  0  0
  5  6  1  0  0  0  0
  6  7  1  0  0  0  0
  3  7  1  0  0  0  0
  2  8  1  0  0  0  0
  8  9  2  0  0  0  0
  9 10  1  0  0  0  0
 10 11  2  0  0  0  0
 11 12  1  0  0  0  0
 12 13  2  0  0  0  0
  8 13  1  0  0  0  0
M  END
>  <Catalog ID>
Z3244663931

>  <PlateID>
1198308-R-SPFL-16

>  <Well>
B11

>  <MW (desalted)>
161.244

>  <ClogP>
2.313

>  <HBD>
1

>  <TPSA>
12.030

>  <RotBonds>
2

$$$$

            

 14 13  0  0  0  0            999 V2000
    0.0000    0.0000    0.0000 Cl  0  0  0  0  0  0  0  0  0  0  0  0
    2.0036    0.0000    0.0000 Cl  0  0  0  0  0  0  0  0  0  0  0  0
    1.1183   -1.6569    0.0000 C   0  0  0  0  0  0  0  0  0  0  0  0
    1.1183   -2.4819    0.0000 N   0  0  0  0  0  0  0  0  0  0  0  0
    1.7858   -2.9668    0.0000 N   0  0  0  0  0  0  0  0  0  0  0  0
    1.5308   -3.7515    0.0000 C   0  0  0  0  0  0  0  0  0  0  0  0
    0.7058   -3.7515    0.0000 C   0  0  0  0  0  0  0  0  0  0  0  0
    0.4509   -2.9668    0.0000 C   0  0  0  0  0  0  0  0  0  0  0  0
   -0.3337   -2.7119    0.0000 C   0  0  0  0  0  0  0  0  0  0  0  0
   -0.9468   -3.2639    0.0000 C   0  0  0  0  0  0  0  0  0  0  0  0
   -1.7314   -3.0090    0.0000 C   0  0  0  0  0  0  0  0  0  0  0  0
   -1.9030   -2.2020    0.0000 C   0  0  0  0  0  0  0  0  0  0  0  0
   -1.2899   -1.6500    0.0000 C   0  0  0  0  0  0  0  0  0  0  0  0
   -0.5052   -1.9049    0.0000 N   0  0  0  0  0  0  0  0  0  0  0  0
  3  4  1  0  0  0  0
  4  5  1  0  0  0  0
  5  6  2  0  0  0  0
  6  7  1  0  0  0  0
  7  8  2  0  0  0  0
  4  8  1  0  0  0  0
  8  9  1  0  0  0  0
  9 10  1  0  0  0  0
 10 11  1  0  0  0  0
 11 12  1  0  0  0  0
 12 13  1  0  0  0  0
 13 14  1  0  0  0  0
  9 14  1  0  0  0  0
M  END
>  <Catalog ID>
Z1981870440

>  <PlateID>
1198308-R-SPFL-16

>  <Well>
C02

>  <MW (desalted)>
165.236

>  <ClogP>
0.608

>  <HBD>
1

>  <TPSA>
29.850

>  <RotBonds>
1

$$$$

            

 15 17  0  0  0  0            999 V2000
    0.7145   -0.4125    0.0000 C   0  0  0  0  0  0  0  0  0  0  0  0
    1.4289    0.0000    0.0000 N   0  0  0  0  0  0  0  0  0  0  0  0
    2.1434   -0.4125    0.0000 C   0  0  0  0  0  0  0  0  0  0  0  0
    2.8579    0.0000    0.0000 C   0  0  0  0  0  0  0  0  0  0  0  0
    3.5724   -0.4125    0.0000 C   0  0  0  0  0  0  0  0  0  0  0  0
    3.5724   -1.2375    0.0000 C   0  0  0  0  0  0  0  0  0  0  0  0
    2.8579   -1.6500    0.0000 C   0  0  0  0  0  0  0  0  0  0  0  0
    2.1434   -1.2375    0.0000 C   0  0  0  0  0  0  0  0  0  0  0  0
    1.4289   -1.6500    0.0000 C   0  0  0  0  0  0  0  0  0  0  0  0
    0.7145   -1.2375    0.0000 C   0  0  0  0  0  0  0  0  0  0  0  0
    0.0000   -1.6500    0.0000 N   0  0  0  0  0  0  0  0  0  0  0  0
   -0.0862   -2.4705    0.0000 C   0  0  0  0  0  0  0  0  0  0  0  0
   -0.8932   -2.6420    0.0000 C   0  0  0  0  0  0  0  0  0  0  0  0
   -1.3057   -1.9275    0.0000 N   0  0  0  0  0  0  0  0  0  0  0  0
   -0.7537   -1.3144    0.0000 C   0  0  0  0  0  0  0  0  0  0  0  0
  1  2  1  0  0  0  0
  2  3  1  0  0  0  0
  3  4  2  0  0  0  0
  4  5  1  0  0  0  0
  5  6  2  0  0  0  0
  6  7  1  0  0  0  0
  7  8  2  0  0  0  0
  3  8  1  0  0  0  0
  8  9  1  0  0  0  0
  9 10  1  0  0  0  0
  1 10  1  0  0  0  0
 10 11  1  0  0  0  0
 11 12  1  0  0  0  0
 12 13  2  0  0  0  0
 13 14  1  0  0  0  0
 14 15  2  0  0  0  0
 11 15  1  0  0  0  0
M  END
>  <Catalog ID>
Z803130612

>  <PlateID>
1198308-R-SPFL-16

>  <Well>
C03

>  <MW (desalted)>
199.252

>  <ClogP>
1.399

>  <HBD>
1

>  <TPSA>
29.850

>  <RotBonds>
1

$$$$

            

 13 14  0  0  0  0            999 V2000
    1.2665   -0.6244    0.0000 O   0  0  0  0  0  0  0  0  0  0  0  0
    0.7145   -1.2375    0.0000 S   0  0  0  0  0  0  0  0  0  0  0  0
    0.1624   -0.6244    0.0000 O   0  0  0  0  0  0  0  0  0  0  0  0
    1.3819   -1.7224    0.0000 C   0  0  0  0  0  0  0  0  0  0  0  0
    1.1270   -2.5070    0.0000 C   0  0  0  0  0  0  0  0  0  0  0  0
    0.3020   -2.5070    0.0000 C   0  0  0  0  0  0  0  0  0  0  0  0
    0.0470   -1.7224    0.0000 N   0  0  0  0  0  0  0  0  0  0  0  0
    1.6119   -3.1745    0.0000 C   0  0  0  0  0  0  0  0  0  0  0  0
    2.4324   -3.0882    0.0000 C   0  0  0  0  0  0  0  0  0  0  0  0
    2.9173   -3.7557    0.0000 C   0  0  0  0  0  0  0  0  0  0  0  0
    2.5817   -4.5094    0.0000 C   0  0  0  0  0  0  0  0  0  0  0  0
    1.7613   -4.5956    0.0000 C   0  0  0  0  0  0  0  0  0  0  0  0
    1.2763   -3.9282    0.0000 C   0  0  0  0  0  0  0  0  0  0  0  0
  1  2  2  0  0  0  0
  2  3  2  0  0  0  0
  2  4  1  0  0  0  0
  4  5  1  0  0  0  0
  5  6  1  0  0  0  0
  6  7  1  0  0  0  0
  2  7  1  0  0  0  0
  5  8  1  0  0  0  0
  8  9  2  0  0  0  0
  9 10  1  0  0  0  0
 10 11  2  0  0  0  0
 11 12  1  0  0  0  0
 12 13  2  0  0  0  0
  8 13  1  0  0  0  0
M  END
>  <Catalog ID>
Z1862025182

>  <PlateID>
1198308-R-SPFL-16

>  <Well>
C04

>  <MW (desalted)>
197.254

>  <ClogP>
0.645

>  <HBD>
1

>  <TPSA>
46.170

>  <RotBonds>
1

$$$$

            

 14 15  0  0  0  0            999 V2000
    1.4289   -0.0000    0.0000 O   0  0  0  0  0  0  0  0  0  0  0  0
    0.7145   -0.4125    0.0000 C   0  0  0  0  0  0  0  0  0  0  0  0
    0.0000    0.0000    0.0000 O   0  0  0  0  0  0  0  0  0  0  0  0
    0.7145   -1.2375    0.0000 C   0  0  0  0  0  0  0  0  0  0  0  0
    1.3819   -1.7224    0.0000 C   0  0  0  0  0  0  0  0  0  0  0  0
    1.1270   -2.5070    0.0000 C   0  0  0  0  0  0  0  0  0  0  0  0
    0.3020   -2.5070    0.0000 C   0  0  0  0  0  0  0  0  0  0  0  0
    0.0470   -1.7224    0.0000 S   0  0  0  0  0  0  0  0  0  0  0  0
   -0.1830   -3.1745    0.0000 C   0  0  0  0  0  0  0  0  0  0  0  0
    0.1526   -3.9282    0.0000 C   0  0  0  0  0  0  0  0  0  0  0  0
   -0.3323   -4.5956    0.0000 C   0  0  0  0  0  0  0  0  0  0  0  0
   -1.1528   -4.5094    0.0000 C   0  0  0  0  0  0  0  0  0  0  0  0
   -1.4884   -3.7557    0.0000 C   0  0  0  0  0  0  0  0  0  0  0  0
   -1.0034   -3.0882    0.0000 C   0  0  0  0  0  0  0  0  0  0  0  0
  1  2  1  0  0  0  0
  2  3  2  0  0  0  0
  2  4  1  0  0  0  0
  4  5  2  0  0  0  0
  5  6  1  0  0  0  0
  6  7  2  0  0  0  0
  7  8  1  0  0  0  0
  4  8  1  0  0  0  0
  7  9  1  0  0  0  0
  9 10  1  0  0  0  0
 10 11  1  0  0  0  0
 11 12  1  0  0  0  0
 12 13  1  0  0  0  0
 13 14  1  0  0  0  0
  9 14  1  0  0  0  0
M  END
>  <Catalog ID>
Z448247694

>  <PlateID>
1198308-R-SPFL-16

>  <Well>
C05

>  <MW (desalted)>
210.293

>  <ClogP>
4.269

>  <HBD>
1

>  <TPSA>
37.300

>  <RotBonds>
2

$$$$

            

 15 16  0  0  0  0            999 V2000
    0.7145   -0.4125    0.0000 F   0  0  0  0  0  0  0  0  0  0  0  0
    0.7145   -1.2375    0.0000 C   0  0  0  0  0  0  0  0  0  0  0  0
    1.4289   -1.6500    0.0000 C   0  0  0  0  0  0  0  0  0  0  0  0
    1.4289   -2.4750    0.0000 C   0  0  0  0  0  0  0  0  0  0  0  0
    0.7145   -2.8875    0.0000 C   0  0  0  0  0  0  0  0  0  0  0  0
    0.0000   -2.4750    0.0000 C   0  0  0  0  0  0  0  0  0  0  0  0
    0.0000   -1.6500    0.0000 C   0  0  0  0  0  0  0  0  0  0  0  0
   -0.7145   -1.2375    0.0000 C   0  0  0  0  0  0  0  0  0  0  0  0
   -1.4289   -0.8250    0.0000 N   0  0  0  0  0  0  0  0  0  0  0  0
    2.1434   -2.8875    0.0000 C   0  0  0  0  0  0  0  0  0  0  0  0
    2.8579   -2.4750    0.0000 C   0  0  0  0  0  0  0  0  0  0  0  0
    3.5724   -2.8875    0.0000 C   0  0  0  0  0  0  0  0  0  0  0  0
    3.5724   -3.7125    0.0000 C   0  0  0  0  0  0  0  0  0  0  0  0
    2.8579   -4.1250    0.0000 C   0  0  0  0  0  0  0  0  0  0  0  0
    2.1434   -3.7125    0.0000 C   0  0  0  0  0  0  0  0  0  0  0  0
  1  2  1  0  0  0  0
  2  3  2  0  0  0  0
  3  4  1  0  0  0  0
  4  5  2  0  0  0  0
  5  6  1  0  0  0  0
  6  7  2  0  0  0  0
  2  7  1  0  0  0  0
  7  8  1  0  0  0  0
  8  9  3  0  0  0  0
  4 10  1  0  0  0  0
 10 11  2  0  0  0  0
 11 12  1  0  0  0  0
 12 13  2  0  0  0  0
 13 14  1  0  0  0  0
 14 15  2  0  0  0  0
 10 15  1  0  0  0  0
M  END
>  <Catalog ID>
Z1201623830

>  <PlateID>
1198308-R-SPFL-16

>  <Well>
C06

>  <MW (desalted)>
197.208

>  <ClogP>
3.606

>  <HBD>
0

>  <TPSA>
23.790

>  <RotBonds>
1

$$$$

            

 10 10  0  0  0  0            999 V2000
    0.0000    3.3000    0.0000 C   0  0  0  0  0  0  0  0  0  0  0  0
    0.0000    2.4750    0.0000 C   0  0  0  0  0  0  0  0  0  0  0  0
    0.7145    2.0625    0.0000 C   0  0  0  0  0  0  0  0  0  0  0  0
    1.4289    2.4750    0.0000 O   0  0  0  0  0  0  0  0  0  0  0  0
    0.7145    1.2375    0.0000 C   0  0  0  0  0  0  0  0  0  0  0  0
    1.4289    0.8250    0.0000 C   0  0  0  0  0  0  0  0  0  0  0  0
    1.4289   -0.0000    0.0000 C   0  0  0  0  0  0  0  0  0  0  0  0
    0.7145   -0.4125    0.0000 C   0  0  0  0  0  0  0  0  0  0  0  0
    0.0000    0.0000    0.0000 N   0  0  0  0  0  0  0  0  0  0  0  0
    0.0000    0.8250    0.0000 C   0  0  0  0  0  0  0  0  0  0  0  0
  1  2  1  0  0  0  0
  2  3  1  0  0  0  0
  3  4  2  0  0  0  0
  3  5  1  0  0  0  0
  5  6  2  0  0  0  0
  6  7  1  0  0  0  0
  7  8  2  0  0  0  0
  8  9  1  0  0  0  0
  9 10  2  0  0  0  0
  5 10  1  0  0  0  0
M  END
>  <Catalog ID>
Z513733848

>  <PlateID>
1198308-R-SPFL-16

>  <Well>
C07

>  <MW (desalted)>
135.163

>  <ClogP>
1.009

>  <HBD>
0

>  <TPSA>
29.960

>  <RotBonds>
2

$$$$

            

 15 16  0  0  0  0            999 V2000
    0.7145   -0.4125    0.0000 N   0  0  0  0  0  0  0  0  0  0  0  0
    0.7145   -1.2375    0.0000 C   0  0  0  0  0  0  0  0  0  0  0  0
    1.4289   -1.6500    0.0000 C   0  0  0  0  0  0  0  0  0  0  0  0
    1.4289   -2.4750    0.0000 C   0  0  0  0  0  0  0  0  0  0  0  0
    0.7145   -2.8875    0.0000 C   0  0  0  0  0  0  0  0  0  0  0  0
    0.0000   -2.4750    0.0000 C   0  0  0  0  0  0  0  0  0  0  0  0
    0.0000   -1.6500    0.0000 C   0  0  0  0  0  0  0  0  0  0  0  0
   -0.7145   -1.2375    0.0000 C   0  0  0  0  0  0  0  0  0  0  0  0
   -1.4289   -1.6500    0.0000 C   0  0  0  0  0  0  0  0  0  0  0  0
   -2.1434   -1.2375    0.0000 C   0  0  0  0  0  0  0  0  0  0  0  0
   -2.8579   -1.6500    0.0000 F   0  0  0  0  0  0  0  0  0  0  0  0
   -2.1434   -0.4125    0.0000 C   0  0  0  0  0  0  0  0  0  0  0  0
   -1.4289    0.0000    0.0000 C   0  0  0  0  0  0  0  0  0  0  0  0
   -1.4289    0.8250    0.0000 F   0  0  0  0  0  0  0  0  0  0  0  0
   -0.7145   -0.4125    0.0000 C   0  0  0  0  0  0  0  0  0  0  0  0
  1  2  1  0  0  0  0
  2  3  2  0  0  0  0
  3  4  1  0  0  0  0
  4  5  2  0  0  0  0
  5  6  1  0  0  0  0
  6  7  2  0  0  0  0
  2  7  1  0  0  0  0
  7  8  1  0  0  0  0
  8  9  2  0  0  0  0
  9 10  1  0  0  0  0
 10 11  1  0  0  0  0
 10 12  2  0  0  0  0
 12 13  1  0  0  0  0
 13 14  1  0  0  0  0
 13 15  2  0  0  0  0
  8 15  1  0  0  0  0
M  END
>  <Catalog ID>
Z732776230

>  <PlateID>
1198308-R-SPFL-16

>  <Well>
C08

>  <MW (desalted)>
205.203

>  <ClogP>
3.165

>  <HBD>
1

>  <TPSA>
26.020

>  <RotBonds>
1

$$$$

            

 13 14  0  0  0  0            999 V2000
    2.5304    3.2248    0.0000 C   0  0  0  0  0  0  0  0  0  0  0  0
    3.0448    3.8698    0.0000 C   0  0  0  0  0  0  0  0  0  0  0  0
    3.8698    3.8698    0.0000 S   0  0  0  0  0  0  0  0  0  0  0  0
    4.3842    3.2248    0.0000 C   0  0  0  0  0  0  0  0  0  0  0  0
    4.2006    2.4205    0.0000 C   0  0  0  0  0  0  0  0  0  0  0  0
    3.4573    2.0625    0.0000 C   0  0  0  0  0  0  0  0  0  0  0  0
    2.7140    2.4205    0.0000 N   0  0  0  0  0  0  0  0  0  0  0  0
    3.4573    1.2375    0.0000 C   0  0  0  0  0  0  0  0  0  0  0  0
    4.1718    0.8250    0.0000 C   0  0  0  0  0  0  0  0  0  0  0  0
    4.1718   -0.0000    0.0000 C   0  0  0  0  0  0  0  0  0  0  0  0
    3.4573   -0.4125    0.0000 C   0  0  0  0  0  0  0  0  0  0  0  0
    2.7428    0.0000    0.0000 C   0  0  0  0  0  0  0  0  0  0  0  0
    2.7428    0.8250    0.0000 C   0  0  0  0  0  0  0  0  0  0  0  0
  1  2  1  0  0  0  0
  2  3  1  0  0  0  0
  3  4  1  0  0  0  0
  4  5  1  0  0  0  0
  5  6  1  0  0  0  0
  6  7  1  0  0  0  0
  1  7  1  0  0  0  0
  6  8  1  0  0  0  0
  8  9  2  0  0  0  0
  9 10  1  0  0  0  0
 10 11  2  0  0  0  0
 11 12  1  0  0  0  0
 12 13  2  0  0  0  0
  8 13  1  0  0  0  0
M  END
>  <Catalog ID>
Z4219354651

>  <PlateID>
1198308-R-SPFL-16

>  <Well>
C09

>  <MW (desalted)>
193.309

>  <ClogP>
2.103

>  <HBD>
1

>  <TPSA>
12.030

>  <RotBonds>
1

$$$$

            

 14 14  0  0  0  0            999 V2000
    0.0000    0.0000    0.0000 Cl  0  0  0  0  0  0  0  0  0  0  0  0
    2.3571    1.4119    0.0000 C   0  0  0  0  0  0  0  0  0  0  0  0
    2.8715    2.0569    0.0000 C   0  0  0  0  0  0  0  0  0  0  0  0
    3.6965    2.0569    0.0000 N   0  0  0  0  0  0  0  0  0  0  0  0
    4.2109    1.4119    0.0000 C   0  0  0  0  0  0  0  0  0  0  0  0
    4.0273    0.6076    0.0000 C   0  0  0  0  0  0  0  0  0  0  0  0
    3.2840    0.2496    0.0000 C   0  0  0  0  0  0  0  0  0  0  0  0
    2.5407    0.6076    0.0000 C   0  0  0  0  0  0  0  0  0  0  0  0
    3.2840   -0.5754    0.0000 C   0  0  0  0  0  0  0  0  0  0  0  0
    3.9985   -0.9879    0.0000 C   0  0  0  0  0  0  0  0  0  0  0  0
    3.9985   -1.8129    0.0000 C   0  0  0  0  0  0  0  0  0  0  0  0
    3.2840   -2.2254    0.0000 C   0  0  0  0  0  0  0  0  0  0  0  0
    2.5696   -1.8129    0.0000 C   0  0  0  0  0  0  0  0  0  0  0  0
    2.5696   -0.9879    0.0000 C   0  0  0  0  0  0  0  0  0  0  0  0
  2  3  1  0  0  0  0
  3  4  1  0  0  0  0
  4  5  1  0  0  0  0
  5  6  1  0  0  0  0
  6  7  1  0  0  0  0
  7  8  1  0  0  0  0
  2  8  1  0  0  0  0
  7  9  1  0  0  0  0
  9 10  2  0  0  0  0
 10 11  1  0  0  0  0
 11 12  2  0  0  0  0
 12 13  1  0  0  0  0
 13 14  2  0  0  0  0
  9 14  1  0  0  0  0
M  END
>  <Catalog ID>
Z2724334963

>  <PlateID>
1198308-R-SPFL-16

>  <Well>
C10

>  <MW (desalted)>
175.270

>  <ClogP>
2.902

>  <HBD>
1

>  <TPSA>
12.030

>  <RotBonds>
1

$$$$

            

 13 13  0  0  0  0            999 V2000
    0.0000    0.0000    0.0000 Cl  0  0  0  0  0  0  0  0  0  0  0  0
    3.0246    2.4924    0.0000 C   0  0  0  0  0  0  0  0  0  0  0  0
    3.0246    1.6674    0.0000 C   0  0  0  0  0  0  0  0  0  0  0  0
    3.7391    1.2549    0.0000 C   0  0  0  0  0  0  0  0  0  0  0  0
    3.7391    0.4299    0.0000 C   0  0  0  0  0  0  0  0  0  0  0  0
    3.0246    0.0174    0.0000 C   0  0  0  0  0  0  0  0  0  0  0  0
    2.3101    0.4299    0.0000 C   0  0  0  0  0  0  0  0  0  0  0  0
    2.3101    1.2549    0.0000 C   0  0  0  0  0  0  0  0  0  0  0  0
    3.0246   -0.8076    0.0000 C   0  0  0  0  0  0  0  0  0  0  0  0
    3.6920   -1.2925    0.0000 C   0  0  0  0  0  0  0  0  0  0  0  0
    3.4371   -2.0771    0.0000 C   0  0  0  0  0  0  0  0  0  0  0  0
    2.6121   -2.0771    0.0000 N   0  0  0  0  0  0  0  0  0  0  0  0
    2.3571   -1.2925    0.0000 C   0  0  0  0  0  0  0  0  0  0  0  0
  2  3  1  0  0  0  0
  3  4  2  0  0  0  0
  4  5  1  0  0  0  0
  5  6  2  0  0  0  0
  6  7  1  0  0  0  0
  7  8  2  0  0  0  0
  3  8  1  0  0  0  0
  6  9  1  0  0  0  0
  9 10  1  0  0  0  0
 10 11  1  0  0  0  0
 11 12  1  0  0  0  0
 12 13  1  0  0  0  0
  9 13  1  0  0  0  0
M  END
>  <Catalog ID>
Z3244744259

>  <PlateID>
1198308-R-SPFL-16

>  <Well>
C11

>  <MW (desalted)>
161.244

>  <ClogP>
2.433

>  <HBD>
1

>  <TPSA>
12.030

>  <RotBonds>
1

$$$$

            

 15 15  0  0  0  0            999 V2000
    0.0000    0.0000    0.0000 Cl  0  0  0  0  0  0  0  0  0  0  0  0
    4.0291    0.0149    0.0000 N   0  0  0  0  0  0  0  0  0  0  0  0
    3.3147   -0.3976    0.0000 C   0  0  0  0  0  0  0  0  0  0  0  0
    2.6002    0.0149    0.0000 C   0  0  0  0  0  0  0  0  0  0  0  0
    2.6002    0.8399    0.0000 C   0  0  0  0  0  0  0  0  0  0  0  0
    1.8857    1.2524    0.0000 C   0  0  0  0  0  0  0  0  0  0  0  0
    1.8857    2.0774    0.0000 C   0  0  0  0  0  0  0  0  0  0  0  0
    2.6002    2.4899    0.0000 C   0  0  0  0  0  0  0  0  0  0  0  0
    3.3147    2.0774    0.0000 C   0  0  0  0  0  0  0  0  0  0  0  0
    3.3147    1.2524    0.0000 C   0  0  0  0  0  0  0  0  0  0  0  0
    3.3147   -1.2226    0.0000 C   0  0  0  0  0  0  0  0  0  0  0  0
    3.9821   -1.7075    0.0000 N   0  0  0  0  0  0  0  0  0  0  0  0
    3.7272   -2.4921    0.0000 C   0  0  0  0  0  0  0  0  0  0  0  0
    2.9022   -2.4921    0.0000 C   0  0  0  0  0  0  0  0  0  0  0  0
    2.6472   -1.7075    0.0000 O   0  0  0  0  0  0  0  0  0  0  0  0
  2  3  1  0  0  0  0
  3  4  1  0  0  0  0
  4  5  1  0  0  0  0
  5  6  2  0  0  0  0
  6  7  1  0  0  0  0
  7  8  2  0  0  0  0
  8  9  1  0  0  0  0
  9 10  2  0  0  0  0
  5 10  1  0  0  0  0
  3 11  1  0  0  0  0
 11 12  2  0  0  0  0
 12 13  1  0  0  0  0
 13 14  2  0  0  0  0
 14 15  1  0  0  0  0
 11 15  1  0  0  0  0
M  END
>  <Catalog ID>
Z2467239636

>  <PlateID>
1198308-R-SPFL-16

>  <Well>
D02

>  <MW (desalted)>
188.226

>  <ClogP>
0.650

>  <HBD>
1

>  <TPSA>
52.050

>  <RotBonds>
3

$$$$

            

 11 12  0  0  0  0            999 V2000
    1.4289   -2.4750    0.0000 O   0  0  0  0  0  0  0  0  0  0  0  0
    1.4289   -1.6500    0.0000 C   0  0  0  0  0  0  0  0  0  0  0  0
    0.7145   -1.2375    0.0000 O   0  0  0  0  0  0  0  0  0  0  0  0
    0.7145   -0.4125    0.0000 C   0  0  0  0  0  0  0  0  0  0  0  0
    1.4289    0.0000    0.0000 C   0  0  0  0  0  0  0  0  0  0  0  0
    2.1434   -0.4125    0.0000 C   0  0  0  0  0  0  0  0  0  0  0  0
    2.8579    0.0000    0.0000 C   0  0  0  0  0  0  0  0  0  0  0  0
    3.5724   -0.4125    0.0000 C   0  0  0  0  0  0  0  0  0  0  0  0
    3.5724   -1.2375    0.0000 C   0  0  0  0  0  0  0  0  0  0  0  0
    2.8579   -1.6500    0.0000 N   0  0  0  0  0  0  0  0  0  0  0  0
    2.1434   -1.2375    0.0000 C   0  0  0  0  0  0  0  0  0  0  0  0
  1  2  2  0  0  0  0
  2  3  1  0  0  0  0
  3  4  1  0  0  0  0
  4  5  2  0  0  0  0
  5  6  1  0  0  0  0
  6  7  2  0  0  0  0
  7  8  1  0  0  0  0
  8  9  2  0  0  0  0
  9 10  1  0  0  0  0
 10 11  2  0  0  0  0
  2 11  1  0  0  0  0
  6 11  1  0  0  0  0
M  END
>  <Catalog ID>
Z1127388775

>  <PlateID>
1198308-R-SPFL-16

>  <Well>
D03

>  <MW (desalted)>
147.131

>  <ClogP>
0.164

>  <HBD>
0

>  <TPSA>
39.190

>  <RotBonds>
0

$$$$

            

 12 12  0  0  0  0            999 V2000
    0.0000    3.3000    0.0000 C   0  0  0  0  0  0  0  0  0  0  0  0
    0.0000    2.4750    0.0000 N   0  0  0  0  0  0  0  0  0  0  0  0
    0.7145    2.0625    0.0000 C   0  0  0  0  0  0  0  0  0  0  0  0
    0.7145    1.2375    0.0000 C   0  0  0  0  0  0  0  0  0  0  0  0
    1.4289    0.8250    0.0000 C   0  0  0  0  0  0  0  0  0  0  0  0
    1.4289   -0.0000    0.0000 N   0  0  0  0  0  0  0  0  0  0  0  0
    0.7145   -0.4125    0.0000 C   0  0  0  0  0  0  0  0  0  0  0  0
    0.0000    0.0000    0.0000 N   0  0  0  0  0  0  0  0  0  0  0  0
    0.0000    0.8250    0.0000 C   0  0  0  0  0  0  0  0  0  0  0  0
    0.7145   -1.2375    0.0000 C   0  0  0  0  0  0  0  0  0  0  0  0
    1.4289   -1.6500    0.0000 C   0  0  0  0  0  0  0  0  0  0  0  0
   -0.0000   -1.6500    0.0000 C   0  0  0  0  0  0  0  0  0  0  0  0
  1  2  1  0  0  0  0
  2  3  1  0  0  0  0
  3  4  1  0  0  0  0
  4  5  2  0  0  0  0
  5  6  1  0  0  0  0
  6  7  2  0  0  0  0
  7  8  1  0  0  0  0
  8  9  2  0  0  0  0
  4  9  1  0  0  0  0
  7 10  1  0  0  0  0
 10 11  1  0  0  0  0
 10 12  1  0  0  0  0
M  END
>  <Catalog ID>
Z1013714454

>  <PlateID>
1198308-R-SPFL-16

>  <Well>
D04

>  <MW (desalted)>
165.236

>  <ClogP>
0.483

>  <HBD>
1

>  <TPSA>
37.810

>  <RotBonds>
3

$$$$

            

 16 17  0  0  0  0            999 V2000
    1.4289    0.0000    0.0000 N   0  0  0  0  0  0  0  0  0  0  0  0
    2.1434   -0.4125    0.0000 C   0  0  0  0  0  0  0  0  0  0  0  0
    2.8579    0.0000    0.0000 O   0  0  0  0  0  0  0  0  0  0  0  0
    2.1434   -1.2375    0.0000 N   0  0  0  0  0  0  0  0  0  0  0  0
    2.8579   -1.6500    0.0000 C   0  0  0  0  0  0  0  0  0  0  0  0
    2.8579   -2.4750    0.0000 C   0  0  0  0  0  0  0  0  0  0  0  0
    2.1434   -2.8875    0.0000 C   0  0  0  0  0  0  0  0  0  0  0  0
    1.4289   -2.4750    0.0000 C   0  0  0  0  0  0  0  0  0  0  0  0
    1.4289   -1.6500    0.0000 C   0  0  0  0  0  0  0  0  0  0  0  0
    2.1434   -3.7125    0.0000 O   0  0  0  0  0  0  0  0  0  0  0  0
    1.4289   -4.1250    0.0000 C   0  0  0  0  0  0  0  0  0  0  0  0
    1.4289   -4.9500    0.0000 C   0  0  0  0  0  0  0  0  0  0  0  0
    0.7145   -5.3625    0.0000 C   0  0  0  0  0  0  0  0  0  0  0  0
   -0.0000   -4.9500    0.0000 C   0  0  0  0  0  0  0  0  0  0  0  0
    0.0000   -4.1250    0.0000 C   0  0  0  0  0  0  0  0  0  0  0  0
    0.7145   -3.7125    0.0000 C   0  0  0  0  0  0  0  0  0  0  0  0
  1  2  1  0  0  0  0
  2  3  2  0  0  0  0
  2  4  1  0  0  0  0
  4  5  1  0  0  0  0
  5  6  1  0  0  0  0
  6  7  1  0  0  0  0
  7  8  1  0  0  0  0
  8  9  1  0  0  0  0
  4  9  1  0  0  0  0
  7 10  1  0  0  0  0
 10 11  1  0  0  0  0
 11 12  2  0  0  0  0
 12 13  1  0  0  0  0
 13 14  2  0  0  0  0
 14 15  1  0  0  0  0
 15 16  2  0  0  0  0
 11 16  1  0  0  0  0
M  END
>  <Catalog ID>
Z808652064

>  <PlateID>
1198308-R-SPFL-16

>  <Well>
D05

>  <MW (desalted)>
220.268

>  <ClogP>
-0.057

>  <HBD>
1

>  <TPSA>
55.560

>  <RotBonds>
2

$$$$

            

 13 12  0  0  0  0            999 V2000
    0.0000    0.0000    0.0000 Cl  0  0  0  0  0  0  0  0  0  0  0  0
    2.0036    0.0000    0.0000 Cl  0  0  0  0  0  0  0  0  0  0  0  0
   -1.9486   -3.3000    0.0000 N   0  0  0  0  0  0  0  0  0  0  0  0
   -1.2341   -2.8875    0.0000 C   0  0  0  0  0  0  0  0  0  0  0  0
   -1.2341   -2.0625    0.0000 C   0  0  0  0  0  0  0  0  0  0  0  0
   -0.5196   -1.6500    0.0000 C   0  0  0  0  0  0  0  0  0  0  0  0
    0.1949   -2.0625    0.0000 C   0  0  0  0  0  0  0  0  0  0  0  0
    0.9093   -1.6500    0.0000 N   0  0  0  0  0  0  0  0  0  0  0  0
    1.6238   -2.0625    0.0000 C   0  0  0  0  0  0  0  0  0  0  0  0
    1.6238   -2.8875    0.0000 C   0  0  0  0  0  0  0  0  0  0  0  0
    0.9093   -3.3000    0.0000 C   0  0  0  0  0  0  0  0  0  0  0  0
    0.1949   -2.8875    0.0000 C   0  0  0  0  0  0  0  0  0  0  0  0
   -0.5196   -3.3000    0.0000 C   0  0  0  0  0  0  0  0  0  0  0  0
  3  4  1  0  0  0  0
  4  5  1  0  0  0  0
  5  6  1  0  0  0  0
  6  7  1  0  0  0  0
  7  8  2  0  0  0  0
  8  9  1  0  0  0  0
  9 10  2  0  0  0  0
 10 11  1  0  0  0  0
 11 12  2  0  0  0  0
  7 12  1  0  0  0  0
 12 13  1  0  0  0  0
  4 13  1  0  0  0  0
M  END
>  <Catalog ID>
Z1270312108

>  <PlateID>
1198308-R-SPFL-16

>  <Well>
D06

>  <MW (desalted)>
148.205

>  <ClogP>
0.380

>  <HBD>
1

>  <TPSA>
38.910

>  <RotBonds>
0

$$$$

            

 13 14  0  0  0  0            999 V2000
    4.7812    2.7604    0.0000 N   0  0  0  0  0  0  0  0  0  0  0  0
    4.0668    2.3479    0.0000 S   0  0  0  0  0  0  0  0  0  0  0  0
    3.6543    3.0624    0.0000 O   0  0  0  0  0  0  0  0  0  0  0  0
    4.4793    1.6335    0.0000 O   0  0  0  0  0  0  0  0  0  0  0  0
    3.3523    1.9354    0.0000 C   0  0  0  0  0  0  0  0  0  0  0  0
    3.3523    1.1104    0.0000 C   0  0  0  0  0  0  0  0  0  0  0  0
    2.6378    0.6979    0.0000 C   0  0  0  0  0  0  0  0  0  0  0  0
    1.9233    1.1104    0.0000 C   0  0  0  0  0  0  0  0  0  0  0  0
    1.1387    0.8555    0.0000 N   0  0  0  0  0  0  0  0  0  0  0  0
    0.6538    1.5229    0.0000 C   0  0  0  0  0  0  0  0  0  0  0  0
    1.1387    2.1904    0.0000 S   0  0  0  0  0  0  0  0  0  0  0  0
    1.9233    1.9354    0.0000 C   0  0  0  0  0  0  0  0  0  0  0  0
    2.6378    2.3479    0.0000 C   0  0  0  0  0  0  0  0  0  0  0  0
  1  2  1  0  0  0  0
  2  3  2  0  0  0  0
  2  4  2  0  0  0  0
  2  5  1  0  0  0  0
  5  6  2  0  0  0  0
  6  7  1  0  0  0  0
  7  8  2  0  0  0  0
  8  9  1  0  0  0  0
  9 10  2  0  0  0  0
 10 11  1  0  0  0  0
 11 12  1  0  0  0  0
  8 12  1  0  0  0  0
 12 13  2  0  0  0  0
  5 13  1  0  0  0  0
M  END
>  <Catalog ID>
Z1269184613

>  <PlateID>
1198308-R-SPFL-16

>  <Well>
D07

>  <MW (desalted)>
214.265

>  <ClogP>
0.927

>  <HBD>
1

>  <TPSA>
73.050

>  <RotBonds>
1

$$$$

            

 12 11  0  0  0  0            999 V2000
    0.0000    0.0000    0.0000 Cl  0  0  0  0  0  0  0  0  0  0  0  0
    2.0036    0.0000    0.0000 Cl  0  0  0  0  0  0  0  0  0  0  0  0
    1.1336   -3.3202    0.0000 C   0  0  0  0  0  0  0  0  0  0  0  0
    0.3293   -3.5038    0.0000 C   0  0  0  0  0  0  0  0  0  0  0  0
   -0.3157   -2.9894    0.0000 C   0  0  0  0  0  0  0  0  0  0  0  0
   -1.1003   -3.2443    0.0000 N   0  0  0  0  0  0  0  0  0  0  0  0
   -1.5853   -2.5769    0.0000 C   0  0  0  0  0  0  0  0  0  0  0  0
   -1.1003   -1.9094    0.0000 C   0  0  0  0  0  0  0  0  0  0  0  0
   -0.3157   -2.1644    0.0000 N   0  0  0  0  0  0  0  0  0  0  0  0
    0.3293   -1.6500    0.0000 C   0  0  0  0  0  0  0  0  0  0  0  0
    1.1336   -1.8336    0.0000 C   0  0  0  0  0  0  0  0  0  0  0  0
    1.4916   -2.5769    0.0000 N   0  0  0  0  0  0  0  0  0  0  0  0
  3  4  1  0  0  0  0
  4  5  1  0  0  0  0
  5  6  2  0  0  0  0
  6  7  1  0  0  0  0
  7  8  2  0  0  0  0
  8  9  1  0  0  0  0
  5  9  1  0  0  0  0
  9 10  1  0  0  0  0
 10 11  1  0  0  0  0
 11 12  1  0  0  0  0
  3 12  1  0  0  0  0
M  END
>  <Catalog ID>
Z2830496099

>  <PlateID>
1198308-R-SPFL-16

>  <Well>
D08

>  <MW (desalted)>
137.182

>  <ClogP>
-0.451

>  <HBD>
1

>  <TPSA>
29.850

>  <RotBonds>
0

$$$$

            

 15 16  0  0  0  0            999 V2000
   -0.7145   -0.4125    0.0000 O   0  0  0  0  0  0  0  0  0  0  0  0
    0.0000   -0.0000    0.0000 C   0  0  0  0  0  0  0  0  0  0  0  0
    0.0000    0.8250    0.0000 O   0  0  0  0  0  0  0  0  0  0  0  0
    0.7145   -0.4125    0.0000 C   0  0  0  0  0  0  0  0  0  0  0  0
    1.4289    0.0000    0.0000 C   0  0  0  0  0  0  0  0  0  0  0  0
    2.1434   -0.4125    0.0000 C   0  0  0  0  0  0  0  0  0  0  0  0
    2.8579    0.0000    0.0000 C   0  0  0  0  0  0  0  0  0  0  0  0
    3.5724   -0.4125    0.0000 C   0  0  0  0  0  0  0  0  0  0  0  0
    3.5724   -1.2375    0.0000 C   0  0  0  0  0  0  0  0  0  0  0  0
    4.2868   -1.6500    0.0000 Cl  0  0  0  0  0  0  0  0  0  0  0  0
    2.8579   -1.6500    0.0000 C   0  0  0  0  0  0  0  0  0  0  0  0
    2.1434   -1.2375    0.0000 C   0  0  0  0  0  0  0  0  0  0  0  0
    1.4289   -1.6500    0.0000 C   0  0  0  0  0  0  0  0  0  0  0  0
    1.4289   -2.4750    0.0000 O   0  0  0  0  0  0  0  0  0  0  0  0
    0.7145   -1.2375    0.0000 O   0  0  0  0  0  0  0  0  0  0  0  0
  1  2  1  0  0  0  0
  2  3  2  0  0  0  0
  2  4  1  0  0  0  0
  4  5  2  0  0  0  0
  5  6  1  0  0  0  0
  6  7  2  0  0  0  0
  7  8  1  0  0  0  0
  8  9  2  0  0  0  0
  9 10  1  0  0  0  0
  9 11  1  0  0  0  0
 11 12  2  0  0  0  0
  6 12  1  0  0  0  0
 12 13  1  0  0  0  0
 13 14  2  0  0  0  0
 13 15  1  0  0  0  0
  4 15  1  0  0  0  0
M  END
>  <Catalog ID>
Z1737945431

>  <PlateID>
1198308-R-SPFL-16

>  <Well>
D09

>  <MW (desalted)>
224.597

>  <ClogP>
2.264

>  <HBD>
1

>  <TPSA>
63.600

>  <RotBonds>
1

$$$$

            

 11 12  0  0  0  0            999 V2000
    3.2789    2.8875    0.0000 N   0  0  0  0  0  0  0  0  0  0  0  0
    3.2789    2.0625    0.0000 C   0  0  0  0  0  0  0  0  0  0  0  0
    3.2789    1.2375    0.0000 C   0  0  0  0  0  0  0  0  0  0  0  0
    3.9934    0.8250    0.0000 C   0  0  0  0  0  0  0  0  0  0  0  0
    3.9934    0.0000    0.0000 C   0  0  0  0  0  0  0  0  0  0  0  0
    3.2789   -0.4125    0.0000 C   0  0  0  0  0  0  0  0  0  0  0  0
    2.5645    0.0000    0.0000 C   0  0  0  0  0  0  0  0  0  0  0  0
    1.7798   -0.2549    0.0000 C   0  0  0  0  0  0  0  0  0  0  0  0
    1.2949    0.4125    0.0000 C   0  0  0  0  0  0  0  0  0  0  0  0
    1.7798    1.0799    0.0000 N   0  0  0  0  0  0  0  0  0  0  0  0
    2.5645    0.8250    0.0000 C   0  0  0  0  0  0  0  0  0  0  0  0
  1  2  3  0  0  0  0
  2  3  1  0  0  0  0
  3  4  1  0  0  0  0
  4  5  2  0  0  0  0
  5  6  1  0  0  0  0
  6  7  2  0  0  0  0
  7  8  1  0  0  0  0
  8  9  2  0  0  0  0
  9 10  1  0  0  0  0
 10 11  1  0  0  0  0
  3 11  2  0  0  0  0
  7 11  1  0  0  0  0
M  END
>  <Catalog ID>
Z1198155196

>  <PlateID>
1198308-R-SPFL-16

>  <Well>
D10

>  <MW (desalted)>
142.157

>  <ClogP>
1.955

>  <HBD>
1

>  <TPSA>
39.580

>  <RotBonds>
0

$$$$

            

 14 15  0  0  0  0            999 V2000
    0.7145   -0.4125    0.0000 C   0  0  0  0  0  0  0  0  0  0  0  0
    0.7145   -1.2375    0.0000 C   0  0  0  0  0  0  0  0  0  0  0  0
    1.4289   -1.6500    0.0000 C   0  0  0  0  0  0  0  0  0  0  0  0
    1.4289   -2.4750    0.0000 C   0  0  0  0  0  0  0  0  0  0  0  0
    0.7145   -2.8875    0.0000 C   0  0  0  0  0  0  0  0  0  0  0  0
    0.0000   -2.4750    0.0000 C   0  0  0  0  0  0  0  0  0  0  0  0
   -0.7145   -2.8875    0.0000 N   0  0  0  0  0  0  0  0  0  0  0  0
    0.0000   -1.6500    0.0000 C   0  0  0  0  0  0  0  0  0  0  0  0
    0.7145   -3.7125    0.0000 C   0  0  0  0  0  0  0  0  0  0  0  0
    1.4289   -4.1250    0.0000 C   0  0  0  0  0  0  0  0  0  0  0  0
    1.4289   -4.9500    0.0000 C   0  0  0  0  0  0  0  0  0  0  0  0
    0.7145   -5.3625    0.0000 C   0  0  0  0  0  0  0  0  0  0  0  0
    0.0000   -4.9500    0.0000 C   0  0  0  0  0  0  0  0  0  0  0  0
    0.0000   -4.1250    0.0000 C   0  0  0  0  0  0  0  0  0  0  0  0
  1  2  1  0  0  0  0
  2  3  2  0  0  0  0
  3  4  1  0  0  0  0
  4  5  2  0  0  0  0
  5  6  1  0  0  0  0
  6  7  1  0  0  0  0
  6  8  2  0  0  0  0
  2  8  1  0  0  0  0
  5  9  1  0  0  0  0
  9 10  2  0  0  0  0
 10 11  1  0  0  0  0
 11 12  2  0  0  0  0
 12 13  1  0  0  0  0
 13 14  2  0  0  0  0
  9 14  1  0  0  0  0
M  END
>  <Catalog ID>
Z1262621845

>  <PlateID>
1198308-R-SPFL-16

>  <Well>
D11

>  <MW (desalted)>
183.249

>  <ClogP>
3.302

>  <HBD>
1

>  <TPSA>
26.020

>  <RotBonds>
1

$$$$

            

 13 14  0  0  0  0            999 V2000
    4.7812    3.5854    0.0000 N   0  0  0  0  0  0  0  0  0  0  0  0
    4.0668    3.1729    0.0000 C   0  0  0  0  0  0  0  0  0  0  0  0
    3.3523    3.5854    0.0000 O   0  0  0  0  0  0  0  0  0  0  0  0
    4.0668    2.3479    0.0000 C   0  0  0  0  0  0  0  0  0  0  0  0
    3.3523    1.9354    0.0000 C   0  0  0  0  0  0  0  0  0  0  0  0
    3.3523    1.1104    0.0000 C   0  0  0  0  0  0  0  0  0  0  0  0
    2.6378    0.6979    0.0000 C   0  0  0  0  0  0  0  0  0  0  0  0
    1.9233    1.1104    0.0000 C   0  0  0  0  0  0  0  0  0  0  0  0
    1.1387    0.8555    0.0000 C   0  0  0  0  0  0  0  0  0  0  0  0
    0.6538    1.5229    0.0000 C   0  0  0  0  0  0  0  0  0  0  0  0
    1.1387    2.1904    0.0000 C   0  0  0  0  0  0  0  0  0  0  0  0
    1.9233    1.9354    0.0000 C   0  0  0  0  0  0  0  0  0  0  0  0
    2.6378    2.3479    0.0000 C   0  0  0  0  0  0  0  0  0  0  0  0
  1  2  1  0  0  0  0
  2  3  2  0  0  0  0
  2  4  1  0  0  0  0
  4  5  1  0  0  0  0
  5  6  2  0  0  0  0
  6  7  1  0  0  0  0
  7  8  2  0  0  0  0
  8  9  1  0  0  0  0
  9 10  1  0  0  0  0
 10 11  1  0  0  0  0
 11 12  1  0  0  0  0
  8 12  1  0  0  0  0
 12 13  2  0  0  0  0
  5 13  1  0  0  0  0
M  END
>  <Catalog ID>
Z52214350

>  <PlateID>
1198308-R-SPFL-16

>  <Well>
E02

>  <MW (desalted)>
175.227

>  <ClogP>
1.467

>  <HBD>
1

>  <TPSA>
43.090

>  <RotBonds>
2

$$$$

            

 14 15  0  0  0  0            999 V2000
   -0.9851   -3.2777    0.0000 N   0  0  0  0  0  0  0  0  0  0  0  0
   -0.1781   -3.1062    0.0000 C   0  0  0  0  0  0  0  0  0  0  0  0
    0.3739   -3.7192    0.0000 O   0  0  0  0  0  0  0  0  0  0  0  0
    0.0768   -2.3215    0.0000 C   0  0  0  0  0  0  0  0  0  0  0  0
    0.8838   -2.1500    0.0000 C   0  0  0  0  0  0  0  0  0  0  0  0
    1.1387   -1.3654    0.0000 N   0  0  0  0  0  0  0  0  0  0  0  0
    0.6538   -0.6979    0.0000 C   0  0  0  0  0  0  0  0  0  0  0  0
    1.1387   -0.0305    0.0000 N   0  0  0  0  0  0  0  0  0  0  0  0
    1.9233   -0.2854    0.0000 C   0  0  0  0  0  0  0  0  0  0  0  0
    2.6378    0.1271    0.0000 C   0  0  0  0  0  0  0  0  0  0  0  0
    3.3523   -0.2854    0.0000 C   0  0  0  0  0  0  0  0  0  0  0  0
    3.3523   -1.1104    0.0000 C   0  0  0  0  0  0  0  0  0  0  0  0
    2.6378   -1.5229    0.0000 C   0  0  0  0  0  0  0  0  0  0  0  0
    1.9233   -1.1104    0.0000 C   0  0  0  0  0  0  0  0  0  0  0  0
  1  2  1  0  0  0  0
  2  3  2  0  0  0  0
  2  4  1  0  0  0  0
  4  5  1  0  0  0  0
  5  6  1  0  0  0  0
  6  7  1  0  0  0  0
  7  8  2  0  0  0  0
  8  9  1  0  0  0  0
  9 10  2  0  0  0  0
 10 11  1  0  0  0  0
 11 12  2  0  0  0  0
 12 13  1  0  0  0  0
 13 14  2  0  0  0  0
  6 14  1  0  0  0  0
  9 14  1  0  0  0  0
M  END
>  <Catalog ID>
Z53116464

>  <PlateID>
1198308-R-SPFL-16

>  <Well>
E03

>  <MW (desalted)>
189.214

>  <ClogP>
0.481

>  <HBD>
1

>  <TPSA>
60.910

>  <RotBonds>
3

$$$$

            

 11 11  0  0  0  0            999 V2000
    0.5678    1.9393    0.0000 N   0  0  0  0  0  0  0  0  0  0  0  0
    0.5678    1.1143    0.0000 C   0  0  0  0  0  0  0  0  0  0  0  0
    1.2352    0.6294    0.0000 C   0  0  0  0  0  0  0  0  0  0  0  0
    0.9803   -0.1553    0.0000 C   0  0  0  0  0  0  0  0  0  0  0  0
    0.1553   -0.1553    0.0000 N   0  0  0  0  0  0  0  0  0  0  0  0
   -0.3297   -0.8227    0.0000 C   0  0  0  0  0  0  0  0  0  0  0  0
    0.0059   -1.5764    0.0000 C   0  0  0  0  0  0  0  0  0  0  0  0
    0.3415   -2.3300    0.0000 F   0  0  0  0  0  0  0  0  0  0  0  0
   -0.7478   -1.9119    0.0000 F   0  0  0  0  0  0  0  0  0  0  0  0
    0.7596   -1.2408    0.0000 F   0  0  0  0  0  0  0  0  0  0  0  0
   -0.0997    0.6294    0.0000 C   0  0  0  0  0  0  0  0  0  0  0  0
  1  2  1  0  0  0  0
  2  3  1  0  0  0  0
  3  4  1  0  0  0  0
  4  5  1  0  0  0  0
  5  6  1  0  0  0  0
  6  7  1  0  0  0  0
  7  8  1  0  0  0  0
  7  9  1  0  0  0  0
  7 10  1  0  0  0  0
  5 11  1  0  0  0  0
  2 11  1  0  0  0  0
M  END
>  <Catalog ID>
Z415647552

>  <PlateID>
1198308-R-SPFL-16

>  <Well>
E04

>  <MW (desalted)>
168.160

>  <ClogP>
0.357

>  <HBD>
1

>  <TPSA>
29.260

>  <RotBonds>
2

$$$$

            

 16 17  0  0  0  0            999 V2000
    0.0000    0.0000    0.0000 O   0  0  0  0  0  0  0  0  0  0  0  0
    0.7145   -0.4125    0.0000 C   0  0  0  0  0  0  0  0  0  0  0  0
    1.4289   -0.0000    0.0000 O   0  0  0  0  0  0  0  0  0  0  0  0
    0.7145   -1.2375    0.0000 C   0  0  0  0  0  0  0  0  0  0  0  0
    1.3819   -1.7224    0.0000 C   0  0  0  0  0  0  0  0  0  0  0  0
    1.1270   -2.5070    0.0000 C   0  0  0  0  0  0  0  0  0  0  0  0
    0.3020   -2.5070    0.0000 O   0  0  0  0  0  0  0  0  0  0  0  0
    0.0470   -1.7224    0.0000 N   0  0  0  0  0  0  0  0  0  0  0  0
    1.6119   -3.1745    0.0000 C   0  0  0  0  0  0  0  0  0  0  0  0
    2.4324   -3.0882    0.0000 C   0  0  0  0  0  0  0  0  0  0  0  0
    2.7679   -2.3346    0.0000 F   0  0  0  0  0  0  0  0  0  0  0  0
    2.9173   -3.7557    0.0000 C   0  0  0  0  0  0  0  0  0  0  0  0
    2.5817   -4.5094    0.0000 C   0  0  0  0  0  0  0  0  0  0  0  0
    1.7613   -4.5956    0.0000 C   0  0  0  0  0  0  0  0  0  0  0  0
    1.2763   -3.9282    0.0000 C   0  0  0  0  0  0  0  0  0  0  0  0
    0.4559   -4.0144    0.0000 F   0  0  0  0  0  0  0  0  0  0  0  0
  1  2  1  0  0  0  0
  2  3  2  0  0  0  0
  2  4  1  0  0  0  0
  4  5  1  0  0  0  0
  5  6  2  0  0  0  0
  6  7  1  0  0  0  0
  7  8  1  0  0  0  0
  4  8  2  0  0  0  0
  6  9  1  0  0  0  0
  9 10  2  0  0  0  0
 10 11  1  0  0  0  0
 10 12  1  0  0  0  0
 12 13  2  0  0  0  0
 13 14  1  0  0  0  0
 14 15  2  0  0  0  0
  9 15  1  0  0  0  0
 15 16  1  0  0  0  0
M  END
>  <Catalog ID>
Z1405508174

>  <PlateID>
1198308-R-SPFL-16

>  <Well>
E05

>  <MW (desalted)>
225.148

>  <ClogP>
2.736

>  <HBD>
1

>  <TPSA>
63.330

>  <RotBonds>
2

$$$$

            

 12 12  0  0  0  0            999 V2000
    0.0000    0.0000    0.0000 Cl  0  0  0  0  0  0  0  0  0  0  0  0
    5.7701    1.4250    0.0000 C   0  0  0  0  0  0  0  0  0  0  0  0
    5.7701    0.6000    0.0000 N   0  0  0  0  0  0  0  0  0  0  0  0
    5.0556    0.1875    0.0000 C   0  0  0  0  0  0  0  0  0  0  0  0
    5.0556   -0.6375    0.0000 C   0  0  0  0  0  0  0  0  0  0  0  0
    4.3412   -1.0500    0.0000 C   0  0  0  0  0  0  0  0  0  0  0  0
    3.6267   -0.6375    0.0000 C   0  0  0  0  0  0  0  0  0  0  0  0
    2.8421   -0.8924    0.0000 O   0  0  0  0  0  0  0  0  0  0  0  0
    2.3571   -0.2250    0.0000 C   0  0  0  0  0  0  0  0  0  0  0  0
    2.8421    0.4424    0.0000 O   0  0  0  0  0  0  0  0  0  0  0  0
    3.6267    0.1875    0.0000 C   0  0  0  0  0  0  0  0  0  0  0  0
    4.3412    0.6000    0.0000 C   0  0  0  0  0  0  0  0  0  0  0  0
  2  3  1  0  0  0  0
  3  4  1  0  0  0  0
  4  5  2  0  0  0  0
  5  6  1  0  0  0  0
  6  7  2  0  0  0  0
  7  8  1  0  0  0  0
  8  9  1  0  0  0  0
  9 10  1  0  0  0  0
 10 11  1  0  0  0  0
  7 11  1  0  0  0  0
 11 12  2  0  0  0  0
  4 12  1  0  0  0  0
M  END
>  <Catalog ID>
Z4179948758

>  <PlateID>
1198308-R-SPFL-16

>  <Well>
E06

>  <MW (desalted)>
151.163

>  <ClogP>
1.735

>  <HBD>
1

>  <TPSA>
30.490

>  <RotBonds>
1

$$$$

            

 13 13  0  0  0  0            999 V2000
    1.4289    2.4750    0.0000 C   0  0  0  0  0  0  0  0  0  0  0  0
    0.7145    2.0625    0.0000 O   0  0  0  0  0  0  0  0  0  0  0  0
    0.7145    1.2375    0.0000 C   0  0  0  0  0  0  0  0  0  0  0  0
    1.4289    0.8250    0.0000 C   0  0  0  0  0  0  0  0  0  0  0  0
    1.4289   -0.0000    0.0000 C   0  0  0  0  0  0  0  0  0  0  0  0
    2.1434   -0.4125    0.0000 F   0  0  0  0  0  0  0  0  0  0  0  0
    0.7145   -0.4125    0.0000 C   0  0  0  0  0  0  0  0  0  0  0  0
    0.0000    0.0000    0.0000 C   0  0  0  0  0  0  0  0  0  0  0  0
    0.0000    0.8250    0.0000 C   0  0  0  0  0  0  0  0  0  0  0  0
   -0.7145   -0.4125    0.0000 S   0  0  0  0  0  0  0  0  0  0  0  0
   -1.4289   -0.8250    0.0000 O   0  0  0  0  0  0  0  0  0  0  0  0
   -1.1270    0.3020    0.0000 O   0  0  0  0  0  0  0  0  0  0  0  0
   -0.3020   -1.1270    0.0000 N   0  0  0  0  0  0  0  0  0  0  0  0
  1  2  1  0  0  0  0
  2  3  1  0  0  0  0
  3  4  2  0  0  0  0
  4  5  1  0  0  0  0
  5  6  1  0  0  0  0
  5  7  2  0  0  0  0
  7  8  1  0  0  0  0
  8  9  2  0  0  0  0
  3  9  1  0  0  0  0
  8 10  1  0  0  0  0
 10 11  2  0  0  0  0
 10 12  2  0  0  0  0
 10 13  1  0  0  0  0
M  END
>  <Catalog ID>
Z1995246953

>  <PlateID>
1198308-R-SPFL-16

>  <Well>
E07

>  <MW (desalted)>
205.207

>  <ClogP>
0.855

>  <HBD>
1

>  <TPSA>
69.390

>  <RotBonds>
2

$$$$

            

 13 14  0  0  0  0            999 V2000
    0.7145   -0.4125    0.0000 N   0  0  0  0  0  0  0  0  0  0  0  0
    0.7145   -1.2375    0.0000 C   0  0  0  0  0  0  0  0  0  0  0  0
    1.4289   -1.6500    0.0000 C   0  0  0  0  0  0  0  0  0  0  0  0
    1.4289   -2.4750    0.0000 C   0  0  0  0  0  0  0  0  0  0  0  0
    0.7145   -2.8875    0.0000 N   0  0  0  0  0  0  0  0  0  0  0  0
    0.0000   -2.4750    0.0000 C   0  0  0  0  0  0  0  0  0  0  0  0
    0.0000   -1.6500    0.0000 C   0  0  0  0  0  0  0  0  0  0  0  0
   -0.7145   -1.2375    0.0000 C   0  0  0  0  0  0  0  0  0  0  0  0
   -1.4289   -1.6500    0.0000 C   0  0  0  0  0  0  0  0  0  0  0  0
   -2.1434   -1.2375    0.0000 C   0  0  0  0  0  0  0  0  0  0  0  0
   -2.1434   -0.4125    0.0000 N   0  0  0  0  0  0  0  0  0  0  0  0
   -1.4289    0.0000    0.0000 C   0  0  0  0  0  0  0  0  0  0  0  0
   -0.7145   -0.4125    0.0000 C   0  0  0  0  0  0  0  0  0  0  0  0
  1  2  1  0  0  0  0
  2  3  2  0  0  0  0
  3  4  1  0  0  0  0
  4  5  2  0  0  0  0
  5  6  1  0  0  0  0
  6  7  2  0  0  0  0
  2  7  1  0  0  0  0
  7  8  1  0  0  0  0
  8  9  2  0  0  0  0
  9 10  1  0  0  0  0
 10 11  2  0  0  0  0
 11 12  1  0  0  0  0
 12 13  2  0  0  0  0
  8 13  1  0  0  0  0
M  END
>  <Catalog ID>
Z1255381176

>  <PlateID>
1198308-R-SPFL-16

>  <Well>
E08

>  <MW (desalted)>
171.199

>  <ClogP>
0.880

>  <HBD>
1

>  <TPSA>
51.800

>  <RotBonds>
1

$$$$

            

 12 13  0  0  0  0            999 V2000
    0.7145   -0.4125    0.0000 N   0  0  0  0  0  0  0  0  0  0  0  0
    0.7145   -1.2375    0.0000 C   0  0  0  0  0  0  0  0  0  0  0  0
    1.3819   -1.7224    0.0000 C   0  0  0  0  0  0  0  0  0  0  0  0
    1.1270   -2.5070    0.0000 C   0  0  0  0  0  0  0  0  0  0  0  0
    0.3020   -2.5070    0.0000 N   0  0  0  0  0  0  0  0  0  0  0  0
    0.0470   -1.7224    0.0000 N   0  0  0  0  0  0  0  0  0  0  0  0
   -0.1830   -3.1745    0.0000 C   0  0  0  0  0  0  0  0  0  0  0  0
    0.1526   -3.9282    0.0000 C   0  0  0  0  0  0  0  0  0  0  0  0
   -0.3323   -4.5956    0.0000 C   0  0  0  0  0  0  0  0  0  0  0  0
   -1.1528   -4.5094    0.0000 C   0  0  0  0  0  0  0  0  0  0  0  0
   -1.4884   -3.7557    0.0000 C   0  0  0  0  0  0  0  0  0  0  0  0
   -1.0034   -3.0882    0.0000 N   0  0  0  0  0  0  0  0  0  0  0  0
  1  2  1  0  0  0  0
  2  3  1  0  0  0  0
  3  4  2  0  0  0  0
  4  5  1  0  0  0  0
  5  6  1  0  0  0  0
  2  6  2  0  0  0  0
  5  7  1  0  0  0  0
  7  8  2  0  0  0  0
  8  9  1  0  0  0  0
  9 10  2  0  0  0  0
 10 11  1  0  0  0  0
 11 12  2  0  0  0  0
  7 12  1  0  0  0  0
M  END
>  <Catalog ID>
Z763574364

>  <PlateID>
1198308-R-SPFL-16

>  <Well>
E09

>  <MW (desalted)>
160.176

>  <ClogP>
0.243

>  <HBD>
1

>  <TPSA>
56.730

>  <RotBonds>
1

$$$$

            

 14 14  0  0  0  0            999 V2000
    0.7145    2.0625    0.0000 C   0  0  0  0  0  0  0  0  0  0  0  0
    0.7145    1.2375    0.0000 C   0  0  0  0  0  0  0  0  0  0  0  0
    1.4289    0.8250    0.0000 C   0  0  0  0  0  0  0  0  0  0  0  0
    1.4289   -0.0000    0.0000 C   0  0  0  0  0  0  0  0  0  0  0  0
    0.7145   -0.4125    0.0000 N   0  0  0  0  0  0  0  0  0  0  0  0
    0.0000    0.0000    0.0000 C   0  0  0  0  0  0  0  0  0  0  0  0
    0.0000    0.8250    0.0000 C   0  0  0  0  0  0  0  0  0  0  0  0
   -0.7145    1.2375    0.0000 C   0  0  0  0  0  0  0  0  0  0  0  0
   -0.7145    2.0625    0.0000 O   0  0  0  0  0  0  0  0  0  0  0  0
   -1.4289    0.8250    0.0000 O   0  0  0  0  0  0  0  0  0  0  0  0
    2.1434   -0.4125    0.0000 C   0  0  0  0  0  0  0  0  0  0  0  0
    2.8579   -0.8250    0.0000 F   0  0  0  0  0  0  0  0  0  0  0  0
    1.7309   -1.1270    0.0000 F   0  0  0  0  0  0  0  0  0  0  0  0
    2.5559    0.3020    0.0000 F   0  0  0  0  0  0  0  0  0  0  0  0
  1  2  1  0  0  0  0
  2  3  2  0  0  0  0
  3  4  1  0  0  0  0
  4  5  2  0  0  0  0
  5  6  1  0  0  0  0
  6  7  2  0  0  0  0
  2  7  1  0  0  0  0
  7  8  1  0  0  0  0
  8  9  2  0  0  0  0
  8 10  1  0  0  0  0
  4 11  1  0  0  0  0
 11 12  1  0  0  0  0
 11 13  1  0  0  0  0
 11 14  1  0  0  0  0
M  END
>  <Catalog ID>
Z1269220778

>  <PlateID>
1198308-R-SPFL-16

>  <Well>
E10

>  <MW (desalted)>
205.134

>  <ClogP>
1.923

>  <HBD>
1

>  <TPSA>
50.190

>  <RotBonds>
2

$$$$

            

 13 13  0  0  0  0            999 V2000
    0.5678    1.9393    0.0000 C   0  0  0  0  0  0  0  0  0  0  0  0
    0.5678    1.1143    0.0000 C   0  0  0  0  0  0  0  0  0  0  0  0
    1.2352    0.6294    0.0000 C   0  0  0  0  0  0  0  0  0  0  0  0
    0.9803   -0.1553    0.0000 O   0  0  0  0  0  0  0  0  0  0  0  0
    0.1553   -0.1553    0.0000 C   0  0  0  0  0  0  0  0  0  0  0  0
   -0.0997    0.6294    0.0000 C   0  0  0  0  0  0  0  0  0  0  0  0
   -0.8843    0.8843    0.0000 C   0  0  0  0  0  0  0  0  0  0  0  0
   -1.0558    1.6913    0.0000 O   0  0  0  0  0  0  0  0  0  0  0  0
   -1.4974    0.3323    0.0000 O   0  0  0  0  0  0  0  0  0  0  0  0
   -0.3297   -0.8227    0.0000 C   0  0  0  0  0  0  0  0  0  0  0  0
   -0.8146   -1.4901    0.0000 C   0  0  0  0  0  0  0  0  0  0  0  0
   -0.9971   -0.3378    0.0000 C   0  0  0  0  0  0  0  0  0  0  0  0
    0.3378   -1.3076    0.0000 C   0  0  0  0  0  0  0  0  0  0  0  0
  1  2  1  0  0  0  0
  2  3  2  0  0  0  0
  3  4  1  0  0  0  0
  4  5  1  0  0  0  0
  5  6  2  0  0  0  0
  2  6  1  0  0  0  0
  6  7  1  0  0  0  0
  7  8  2  0  0  0  0
  7  9  1  0  0  0  0
  5 10  1  0  0  0  0
 10 11  1  0  0  0  0
 10 12  1  0  0  0  0
 10 13  1  0  0  0  0
M  END
>  <Catalog ID>
Z4457864929

>  <PlateID>
1198308-R-SPFL-16

>  <Well>
E11

>  <MW (desalted)>
182.216

>  <ClogP>
2.786

>  <HBD>
1

>  <TPSA>
50.440

>  <RotBonds>
2

$$$$

            

 11 11  0  0  0  0            999 V2000
   -0.7145    3.7125    0.0000 O   0  0  0  0  0  0  0  0  0  0  0  0
    0.0000    3.3000    0.0000 C   0  0  0  0  0  0  0  0  0  0  0  0
    0.7145    3.7125    0.0000 O   0  0  0  0  0  0  0  0  0  0  0  0
    0.0000    2.4750    0.0000 C   0  0  0  0  0  0  0  0  0  0  0  0
    0.7145    2.0625    0.0000 C   0  0  0  0  0  0  0  0  0  0  0  0
    0.7145    1.2375    0.0000 C   0  0  0  0  0  0  0  0  0  0  0  0
    1.4289    0.8250    0.0000 C   0  0  0  0  0  0  0  0  0  0  0  0
    1.4289   -0.0000    0.0000 C   0  0  0  0  0  0  0  0  0  0  0  0
    0.7145   -0.4125    0.0000 O   0  0  0  0  0  0  0  0  0  0  0  0
    0.0000    0.0000    0.0000 C   0  0  0  0  0  0  0  0  0  0  0  0
    0.0000    0.8250    0.0000 C   0  0  0  0  0  0  0  0  0  0  0  0
  1  2  1  0  0  0  0
  2  3  2  0  0  0  0
  2  4  1  0  0  0  0
  4  5  1  0  0  0  0
  5  6  1  0  0  0  0
  6  7  1  0  0  0  0
  7  8  1  0  0  0  0
  8  9  1  0  0  0  0
  9 10  1  0  0  0  0
 10 11  1  0  0  0  0
  6 11  1  0  0  0  0
M  END
>  <Catalog ID>
Z979765670

>  <PlateID>
1198308-R-SPFL-16

>  <Well>
F02

>  <MW (desalted)>
158.195

>  <ClogP>
0.586

>  <HBD>
1

>  <TPSA>
46.530

>  <RotBonds>
3

$$$$

            

 15 17  0  0  0  0            999 V2000
    1.7874    1.7775    0.0000 O   0  0  0  0  0  0  0  0  0  0  0  0
    2.4520    1.2886    0.0000 C   0  0  0  0  0  0  0  0  0  0  0  0
    3.1808    1.6753    0.0000 N   0  0  0  0  0  0  0  0  0  0  0  0
    3.9375    1.3467    0.0000 C   0  0  0  0  0  0  0  0  0  0  0  0
    4.1523    0.5501    0.0000 C   0  0  0  0  0  0  0  0  0  0  0  0
    4.9723    0.4591    0.0000 C   0  0  0  0  0  0  0  0  0  0  0  0
    5.3034   -0.2965    0.0000 C   0  0  0  0  0  0  0  0  0  0  0  0
    4.8146   -0.9611    0.0000 C   0  0  0  0  0  0  0  0  0  0  0  0
    3.9947   -0.8701    0.0000 N   0  0  0  0  0  0  0  0  0  0  0  0
    3.6635   -0.1145    0.0000 C   0  0  0  0  0  0  0  0  0  0  0  0
    2.8392   -0.1467    0.0000 N   0  0  0  0  0  0  0  0  0  0  0  0
    2.4119   -0.8524    0.0000 C   0  0  0  0  0  0  0  0  0  0  0  0
    1.6087   -0.6641    0.0000 C   0  0  0  0  0  0  0  0  0  0  0  0
    1.5395    0.1580    0.0000 C   0  0  0  0  0  0  0  0  0  0  0  0
    2.3000    0.4778    0.0000 C   0  0  0  0  0  0  0  0  0  0  0  0
  1  2  2  0  0  0  0
  2  3  1  0  0  0  0
  3  4  1  0  0  0  0
  4  5  1  0  0  0  0
  5  6  2  0  0  0  0
  6  7  1  0  0  0  0
  7  8  2  0  0  0  0
  8  9  1  0  0  0  0
  9 10  2  0  0  0  0
  5 10  1  0  0  0  0
 10 11  1  0  0  0  0
 11 12  1  0  0  0  0
 12 13  1  0  0  0  0
 13 14  1  0  0  0  0
 14 15  1  0  0  0  0
 11 15  1  0  0  0  0
  2 15  1  0  0  0  0
M  END
>  <Catalog ID>
Z1098929005

>  <PlateID>
1198308-R-SPFL-16

>  <Well>
F03

>  <MW (desalted)>
203.240

>  <ClogP>
0.142

>  <HBD>
1

>  <TPSA>
45.230

>  <RotBonds>
0

$$$$

            

 12 12  0  0  0  0            999 V2000
    0.0000    0.0000    0.0000 Cl  0  0  0  0  0  0  0  0  0  0  0  0
    2.7696   -0.7145    0.0000 C   0  0  0  0  0  0  0  0  0  0  0  0
    2.3571   -0.0000    0.0000 C   0  0  0  0  0  0  0  0  0  0  0  0
    2.7696    0.7145    0.0000 N   0  0  0  0  0  0  0  0  0  0  0  0
    3.5946    0.7145    0.0000 C   0  0  0  0  0  0  0  0  0  0  0  0
    4.0071    0.0000    0.0000 C   0  0  0  0  0  0  0  0  0  0  0  0
    3.5946   -0.7145    0.0000 C   0  0  0  0  0  0  0  0  0  0  0  0
    4.4196    0.7145    0.0000 C   0  0  0  0  0  0  0  0  0  0  0  0
    5.2446    0.7145    0.0000 C   0  0  0  0  0  0  0  0  0  0  0  0
    5.6571   -0.0000    0.0000 O   0  0  0  0  0  0  0  0  0  0  0  0
    5.2446   -0.7145    0.0000 C   0  0  0  0  0  0  0  0  0  0  0  0
    4.4196   -0.7145    0.0000 C   0  0  0  0  0  0  0  0  0  0  0  0
  2  3  1  0  0  0  0
  3  4  1  0  0  0  0
  4  5  1  0  0  0  0
  5  6  1  0  0  0  0
  6  7  1  0  0  0  0
  2  7  1  0  0  0  0
  6  8  1  0  0  0  0
  8  9  1  0  0  0  0
  9 10  1  0  0  0  0
 10 11  1  0  0  0  0
 11 12  1  0  0  0  0
  6 12  1  0  0  0  0
M  END
>  <Catalog ID>
Z2309741229

>  <PlateID>
1198308-R-SPFL-16

>  <Well>
F04

>  <MW (desalted)>
155.237

>  <ClogP>
0.527

>  <HBD>
1

>  <TPSA>
21.260

>  <RotBonds>
0

$$$$

            

 16 17  0  0  1  0            999 V2000
    1.4289    0.0000    0.0000 N   0  0  0  0  0  0  0  0  0  0  0  0
    2.1434   -0.4125    0.0000 C   0  0  0  0  0  0  0  0  0  0  0  0
    2.8579    0.0000    0.0000 O   0  0  0  0  0  0  0  0  0  0  0  0
    2.1434   -1.2375    0.0000 N   0  0  0  0  0  0  0  0  0  0  0  0
    1.4289   -1.6500    0.0000 C   0  0  0  0  0  0  0  0  0  0  0  0
    1.4289   -2.4750    0.0000 C   0  0  0  0  0  0  0  0  0  0  0  0
    2.1434   -2.8875    0.0000 O   0  0  0  0  0  0  0  0  0  0  0  0
    2.8579   -2.4750    0.0000 C   0  0  0  0  0  0  0  0  0  0  0  0
    2.8579   -1.6500    0.0000 C   0  0  2  0  0  0  0  0  0  0  0  0
    3.5724   -1.2375    0.0000 C   0  0  0  0  0  0  0  0  0  0  0  0
    4.2868   -1.6500    0.0000 C   0  0  0  0  0  0  0  0  0  0  0  0
    5.0013   -1.2375    0.0000 C   0  0  0  0  0  0  0  0  0  0  0  0
    5.7158   -1.6500    0.0000 C   0  0  0  0  0  0  0  0  0  0  0  0
    5.7158   -2.4750    0.0000 C   0  0  0  0  0  0  0  0  0  0  0  0
    5.0013   -2.8875    0.0000 C   0  0  0  0  0  0  0  0  0  0  0  0
    4.2868   -2.4750    0.0000 C   0  0  0  0  0  0  0  0  0  0  0  0
  1  2  1  0  0  0  0
  2  3  2  0  0  0  0
  2  4  1  0  0  0  0
  4  5  1  0  0  0  0
  5  6  1  0  0  0  0
  6  7  1  0  0  0  0
  7  8  1  0  0  0  0
  9  8  1  0  0  0  0
  9  4  1  0  0  0  0
  9 10  1  1  0  0  0
 10 11  1  0  0  0  0
 11 12  2  0  0  0  0
 12 13  1  0  0  0  0
 13 14  2  0  0  0  0
 14 15  1  0  0  0  0
 15 16  2  0  0  0  0
 11 16  1  0  0  0  0
M  END
>  <Catalog ID>
Z2492833417

>  <PlateID>
1198308-R-SPFL-16

>  <Well>
F05

>  <MW (desalted)>
220.268

>  <ClogP>
0.468

>  <HBD>
1

>  <TPSA>
55.560

>  <RotBonds>
2

$$$$

            

 12 13  0  0  0  0            999 V2000
    2.5645    2.4750    0.0000 N   0  0  0  0  0  0  0  0  0  0  0  0
    3.2789    2.0625    0.0000 C   0  0  0  0  0  0  0  0  0  0  0  0
    3.9934    2.4750    0.0000 O   0  0  0  0  0  0  0  0  0  0  0  0
    3.2789    1.2375    0.0000 C   0  0  0  0  0  0  0  0  0  0  0  0
    3.9934    0.8250    0.0000 C   0  0  0  0  0  0  0  0  0  0  0  0
    3.9934    0.0000    0.0000 C   0  0  0  0  0  0  0  0  0  0  0  0
    3.2789   -0.4125    0.0000 C   0  0  0  0  0  0  0  0  0  0  0  0
    2.5645    0.0000    0.0000 C   0  0  0  0  0  0  0  0  0  0  0  0
    1.7798   -0.2549    0.0000 N   0  0  0  0  0  0  0  0  0  0  0  0
    1.2949    0.4125    0.0000 C   0  0  0  0  0  0  0  0  0  0  0  0
    1.7798    1.0799    0.0000 N   0  0  0  0  0  0  0  0  0  0  0  0
    2.5645    0.8250    0.0000 N   0  0  0  0  0  0  0  0  0  0  0  0
  1  2  1  0  0  0  0
  2  3  2  0  0  0  0
  2  4  1  0  0  0  0
  4  5  2  0  0  0  0
  5  6  1  0  0  0  0
  6  7  2  0  0  0  0
  7  8  1  0  0  0  0
  8  9  2  0  0  0  0
  9 10  1  0  0  0  0
 10 11  2  0  0  0  0
 11 12  1  0  0  0  0
  4 12  1  0  0  0  0
  8 12  1  0  0  0  0
M  END
>  <Catalog ID>
Z1642300665

>  <PlateID>
1198308-R-SPFL-16

>  <Well>
F06

>  <MW (desalted)>
162.149

>  <ClogP>
-0.608

>  <HBD>
1

>  <TPSA>
73.280

>  <RotBonds>
1

$$$$

            

 11 12  0  0  0  0            999 V2000
    4.0668    2.3479    0.0000 O   0  0  0  0  0  0  0  0  0  0  0  0
    3.3523    1.9354    0.0000 C   0  0  0  0  0  0  0  0  0  0  0  0
    3.3523    1.1104    0.0000 C   0  0  0  0  0  0  0  0  0  0  0  0
    2.6378    0.6979    0.0000 C   0  0  0  0  0  0  0  0  0  0  0  0
    1.9233    1.1104    0.0000 C   0  0  0  0  0  0  0  0  0  0  0  0
    1.1387    0.8555    0.0000 C   0  0  0  0  0  0  0  0  0  0  0  0
    0.6538    1.5229    0.0000 C   0  0  0  0  0  0  0  0  0  0  0  0
    1.1387    2.1904    0.0000 C   0  0  0  0  0  0  0  0  0  0  0  0
    1.9233    1.9354    0.0000 C   0  0  0  0  0  0  0  0  0  0  0  0
    2.6378    2.3479    0.0000 C   0  0  0  0  0  0  0  0  0  0  0  0
    2.6378    3.1729    0.0000 F   0  0  0  0  0  0  0  0  0  0  0  0
  1  2  1  0  0  0  0
  2  3  2  0  0  0  0
  3  4  1  0  0  0  0
  4  5  2  0  0  0  0
  5  6  1  0  0  0  0
  6  7  1  0  0  0  0
  7  8  1  0  0  0  0
  8  9  1  0  0  0  0
  5  9  1  0  0  0  0
  9 10  2  0  0  0  0
  2 10  1  0  0  0  0
 10 11  1  0  0  0  0
M  END
>  <Catalog ID>
Z1216830898

>  <PlateID>
1198308-R-SPFL-16

>  <Well>
F07

>  <MW (desalted)>
152.166

>  <ClogP>
2.728

>  <HBD>
1

>  <TPSA>
20.230

>  <RotBonds>
0

$$$$

            

 12 12  0  0  0  0            999 V2000
    0.7145    2.0625    0.0000 C   0  0  0  0  0  0  0  0  0  0  0  0
    0.7145    1.2375    0.0000 N   0  0  0  0  0  0  0  0  0  0  0  0
    1.4289    0.8250    0.0000 C   0  0  0  0  0  0  0  0  0  0  0  0
    2.1434    1.2375    0.0000 C   0  0  0  0  0  0  0  0  0  0  0  0
    2.8579    0.8250    0.0000 N   0  0  0  0  0  0  0  0  0  0  0  0
    1.4289   -0.0000    0.0000 C   0  0  0  0  0  0  0  0  0  0  0  0
    0.7145   -0.4125    0.0000 C   0  0  0  0  0  0  0  0  0  0  0  0
    0.7145   -1.2375    0.0000 O   0  0  0  0  0  0  0  0  0  0  0  0
    0.0000    0.0000    0.0000 N   0  0  0  0  0  0  0  0  0  0  0  0
   -0.7145   -0.4125    0.0000 C   0  0  0  0  0  0  0  0  0  0  0  0
    0.0000    0.8250    0.0000 C   0  0  0  0  0  0  0  0  0  0  0  0
   -0.7145    1.2375    0.0000 O   0  0  0  0  0  0  0  0  0  0  0  0
  1  2  1  0  0  0  0
  2  3  1  0  0  0  0
  3  4  1  0  0  0  0
  4  5  1  0  0  0  0
  3  6  2  0  0  0  0
  6  7  1  0  0  0  0
  7  8  2  0  0  0  0
  7  9  1  0  0  0  0
  9 10  1  0  0  0  0
  9 11  1  0  0  0  0
  2 11  1  0  0  0  0
 11 12  2  0  0  0  0
M  END
>  <Catalog ID>
Z216574184

>  <PlateID>
1198308-R-SPFL-16

>  <Well>
F08

>  <MW (desalted)>
169.181

>  <ClogP>
-1.592

>  <HBD>
1

>  <TPSA>
66.640

>  <RotBonds>
1

$$$$

            

 16 17  0  0  0  0            999 V2000
    0.7145   -0.4125    0.0000 C   0  0  0  0  0  0  0  0  0  0  0  0
    0.7145   -1.2375    0.0000 C   0  0  0  0  0  0  0  0  0  0  0  0
    1.3819   -1.7224    0.0000 C   0  0  0  0  0  0  0  0  0  0  0  0
    1.1270   -2.5070    0.0000 C   0  0  0  0  0  0  0  0  0  0  0  0
    0.3020   -2.5070    0.0000 N   0  0  0  0  0  0  0  0  0  0  0  0
    0.0470   -1.7224    0.0000 N   0  0  0  0  0  0  0  0  0  0  0  0
   -0.7376   -1.4675    0.0000 C   0  0  0  0  0  0  0  0  0  0  0  0
   -1.3507   -2.0195    0.0000 C   0  0  0  0  0  0  0  0  0  0  0  0
   -2.1353   -1.7646    0.0000 C   0  0  0  0  0  0  0  0  0  0  0  0
   -2.3068   -0.9576    0.0000 C   0  0  0  0  0  0  0  0  0  0  0  0
   -1.6937   -0.4056    0.0000 C   0  0  0  0  0  0  0  0  0  0  0  0
   -0.9091   -0.6605    0.0000 C   0  0  0  0  0  0  0  0  0  0  0  0
   -0.2960   -0.1085    0.0000 C   0  0  0  0  0  0  0  0  0  0  0  0
    1.6119   -3.1745    0.0000 C   0  0  0  0  0  0  0  0  0  0  0  0
    2.4324   -3.0882    0.0000 O   0  0  0  0  0  0  0  0  0  0  0  0
    1.2763   -3.9282    0.0000 O   0  0  0  0  0  0  0  0  0  0  0  0
  1  2  1  0  0  0  0
  2  3  2  0  0  0  0
  3  4  1  0  0  0  0
  4  5  2  0  0  0  0
  5  6  1  0  0  0  0
  2  6  1  0  0  0  0
  6  7  1  0  0  0  0
  7  8  2  0  0  0  0
  8  9  1  0  0  0  0
  9 10  2  0  0  0  0
 10 11  1  0  0  0  0
 11 12  2  0  0  0  0
  7 12  1  0  0  0  0
 12 13  1  0  0  0  0
  4 14  1  0  0  0  0
 14 15  2  0  0  0  0
 14 16  1  0  0  0  0
M  END
>  <Catalog ID>
Z285224726

>  <PlateID>
1198308-R-SPFL-16

>  <Well>
F09

>  <MW (desalted)>
216.236

>  <ClogP>
2.968

>  <HBD>
1

>  <TPSA>
55.120

>  <RotBonds>
2

$$$$

            

  0  0  0     0  0            999 V3000
M  V30 BEGIN CTAB
M  V30 COUNTS 11 12 0 0 0
M  V30 BEGIN ATOM
M  V30 1 O 2.6674 0 0 0
M  V30 2 C 1.3337 -0.77 0 0
M  V30 3 C 1.3337 -2.31 0 0 CFG=2
M  V30 4 C 2.1037 -3.6437 0 0
M  V30 5 C 0.5637 -3.6437 0 0 CFG=1
M  V30 6 C -0.77 -4.4137 0 0
M  V30 7 C -0.77 -5.9537 0 0
M  V30 8 C -2.1037 -6.7237 0 0
M  V30 9 C -3.4374 -5.9537 0 0
M  V30 10 C -3.4374 -4.4137 0 0
M  V30 11 C -2.1037 -3.6437 0 0
M  V30 END ATOM
M  V30 BEGIN BOND
M  V30 1 1 1 2
M  V30 2 1 3 2 CFG=3
M  V30 3 1 3 4
M  V30 4 1 5 4
M  V30 5 1 3 5
M  V30 6 1 5 6 CFG=1
M  V30 7 2 6 7
M  V30 8 1 7 8
M  V30 9 2 8 9
M  V30 10 1 9 10
M  V30 11 2 10 11
M  V30 12 1 6 11
M  V30 END BOND
M  V30 BEGIN COLLECTION
M  V30 MDLV30/STERAC1 ATOMS=(2 3 5)
M  V30 END COLLECTION
M  V30 END CTAB
M  END
>  <Catalog ID>
Z2471602860

>  <PlateID>
1198308-R-SPFL-16

>  <Well>
F10

>  <MW (desalted)>
148.202

>  <ClogP>
1.617

>  <HBD>
1

>  <TPSA>
20.230

>  <RotBonds>
2

$$$$

            

 12 13  0  0  0  0            999 V2000
    0.0000   -0.0000    0.0000 O   0  0  0  0  0  0  0  0  0  0  0  0
    0.7145   -0.4125    0.0000 C   0  0  0  0  0  0  0  0  0  0  0  0
    1.4289    0.0000    0.0000 C   0  0  0  0  0  0  0  0  0  0  0  0
    2.1434   -0.4125    0.0000 C   0  0  0  0  0  0  0  0  0  0  0  0
    2.8579    0.0000    0.0000 C   0  0  0  0  0  0  0  0  0  0  0  0
    3.5724   -0.4125    0.0000 O   0  0  0  0  0  0  0  0  0  0  0  0
    3.5724   -1.2375    0.0000 C   0  0  0  0  0  0  0  0  0  0  0  0
    2.8579   -1.6500    0.0000 C   0  0  0  0  0  0  0  0  0  0  0  0
    2.1434   -1.2375    0.0000 N   0  0  0  0  0  0  0  0  0  0  0  0
    1.4289   -1.6500    0.0000 C   0  0  0  0  0  0  0  0  0  0  0  0
    1.4289   -2.4750    0.0000 O   0  0  0  0  0  0  0  0  0  0  0  0
    0.7145   -1.2375    0.0000 N   0  0  0  0  0  0  0  0  0  0  0  0
  1  2  2  0  0  0  0
  2  3  1  0  0  0  0
  3  4  2  0  0  0  0
  4  5  1  0  0  0  0
  5  6  1  0  0  0  0
  6  7  1  0  0  0  0
  7  8  1  0  0  0  0
  8  9  1  0  0  0  0
  4  9  1  0  0  0  0
  9 10  1  0  0  0  0
 10 11  2  0  0  0  0
 10 12  1  0  0  0  0
  2 12  1  0  0  0  0
M  END
>  <Catalog ID>
Z3242918241

>  <PlateID>
1198308-R-SPFL-16

>  <Well>
F11

>  <MW (desalted)>
168.150

>  <ClogP>
-1.695

>  <HBD>
1

>  <TPSA>
58.640

>  <RotBonds>
0

$$$$

            

 15 16  0  0  0  0            999 V2000
    0.7145   -0.4125    0.0000 Cl  0  0  0  0  0  0  0  0  0  0  0  0
    0.7145   -1.2375    0.0000 C   0  0  0  0  0  0  0  0  0  0  0  0
    1.4289   -1.6500    0.0000 C   0  0  0  0  0  0  0  0  0  0  0  0
    1.4289   -2.4750    0.0000 C   0  0  0  0  0  0  0  0  0  0  0  0
    0.7145   -2.8875    0.0000 C   0  0  0  0  0  0  0  0  0  0  0  0
    0.0000   -2.4750    0.0000 C   0  0  0  0  0  0  0  0  0  0  0  0
    0.0000   -1.6500    0.0000 C   0  0  0  0  0  0  0  0  0  0  0  0
   -0.7145   -1.2375    0.0000 C   0  0  0  0  0  0  0  0  0  0  0  0
   -1.4289   -1.6500    0.0000 C   0  0  0  0  0  0  0  0  0  0  0  0
   -2.1434   -1.2375    0.0000 C   0  0  0  0  0  0  0  0  0  0  0  0
   -2.8579   -1.6500    0.0000 O   0  0  0  0  0  0  0  0  0  0  0  0
   -2.1434   -0.4125    0.0000 N   0  0  0  0  0  0  0  0  0  0  0  0
   -1.4289    0.0000    0.0000 C   0  0  0  0  0  0  0  0  0  0  0  0
   -1.4289    0.8250    0.0000 O   0  0  0  0  0  0  0  0  0  0  0  0
   -0.7145   -0.4125    0.0000 N   0  0  0  0  0  0  0  0  0  0  0  0
  1  2  1  0  0  0  0
  2  3  2  0  0  0  0
  3  4  1  0  0  0  0
  4  5  2  0  0  0  0
  5  6  1  0  0  0  0
  6  7  2  0  0  0  0
  2  7  1  0  0  0  0
  7  8  1  0  0  0  0
  8  9  1  0  0  0  0
  9 10  1  0  0  0  0
 10 11  2  0  0  0  0
 10 12  1  0  0  0  0
 12 13  1  0  0  0  0
 13 14  2  0  0  0  0
 13 15  1  0  0  0  0
  8 15  1  0  0  0  0
M  END
>  <Catalog ID>
Z55928910

>  <PlateID>
1198308-R-SPFL-16

>  <Well>
G02

>  <MW (desalted)>
224.644

>  <ClogP>
1.649

>  <HBD>
2

>  <TPSA>
58.200

>  <RotBonds>
1

$$$$

            

 13 14  0  0  0  0            999 V2000
    1.2564   -0.1802    0.0000 C   0  0  0  0  0  0  0  0  0  0  0  0
    1.2564   -1.0052    0.0000 C   0  0  0  0  0  0  0  0  0  0  0  0
    1.9239   -1.4901    0.0000 N   0  0  0  0  0  0  0  0  0  0  0  0
    1.6689   -2.2748    0.0000 C   0  0  0  0  0  0  0  0  0  0  0  0
    0.8439   -2.2748    0.0000 O   0  0  0  0  0  0  0  0  0  0  0  0
    0.5890   -1.4901    0.0000 C   0  0  0  0  0  0  0  0  0  0  0  0
   -0.1956   -1.2352    0.0000 C   0  0  0  0  0  0  0  0  0  0  0  0
    2.1538   -2.9422    0.0000 C   0  0  0  0  0  0  0  0  0  0  0  0
    2.9788   -2.9422    0.0000 O   0  0  0  0  0  0  0  0  0  0  0  0
    3.2338   -3.7268    0.0000 C   0  0  0  0  0  0  0  0  0  0  0  0
    2.5663   -4.2117    0.0000 C   0  0  0  0  0  0  0  0  0  0  0  0
    1.8989   -3.7268    0.0000 C   0  0  0  0  0  0  0  0  0  0  0  0
    1.1143   -3.9818    0.0000 Cl  0  0  0  0  0  0  0  0  0  0  0  0
  1  2  1  0  0  0  0
  2  3  1  0  0  0  0
  3  4  2  0  0  0  0
  4  5  1  0  0  0  0
  5  6  1  0  0  0  0
  2  6  2  0  0  0  0
  6  7  1  0  0  0  0
  4  8  1  0  0  0  0
  8  9  1  0  0  0  0
  9 10  1  0  0  0  0
 10 11  2  0  0  0  0
 11 12  1  0  0  0  0
  8 12  2  0  0  0  0
 12 13  1  0  0  0  0
M  END
>  <Catalog ID>
Z970299450

>  <PlateID>
1198308-R-SPFL-16

>  <Well>
G03

>  <MW (desalted)>
197.618

>  <ClogP>
2.273

>  <HBD>
0

>  <TPSA>
39.170

>  <RotBonds>
1

$$$$

            

 17 16  0  0  0  0            999 V2000
    0.0000    0.0000    0.0000 Cl  0  0  0  0  0  0  0  0  0  0  0  0
    2.0036    0.0000    0.0000 Cl  0  0  0  0  0  0  0  0  0  0  0  0
   -1.3940   -1.6500    0.0000 C   0  0  0  0  0  0  0  0  0  0  0  0
   -0.6796   -2.0625    0.0000 C   0  0  0  0  0  0  0  0  0  0  0  0
    0.0349   -1.6500    0.0000 C   0  0  0  0  0  0  0  0  0  0  0  0
   -0.6796   -2.8875    0.0000 N   0  0  0  0  0  0  0  0  0  0  0  0
   -0.0121   -3.3724    0.0000 C   0  0  0  0  0  0  0  0  0  0  0  0
   -0.2671   -4.1570    0.0000 C   0  0  0  0  0  0  0  0  0  0  0  0
   -1.0921   -4.1570    0.0000 N   0  0  0  0  0  0  0  0  0  0  0  0
   -1.3470   -3.3724    0.0000 N   0  0  0  0  0  0  0  0  0  0  0  0
    0.2178   -4.8245    0.0000 C   0  0  0  0  0  0  0  0  0  0  0  0
    1.0296   -4.6772    0.0000 C   0  0  0  0  0  0  0  0  0  0  0  0
    1.6509   -5.2200    0.0000 C   0  0  0  0  0  0  0  0  0  0  0  0
    1.6139   -6.0441    0.0000 C   0  0  0  0  0  0  0  0  0  0  0  0
    0.9464   -6.5291    0.0000 N   0  0  0  0  0  0  0  0  0  0  0  0
    0.1511   -6.3096    0.0000 C   0  0  0  0  0  0  0  0  0  0  0  0
   -0.1731   -5.5510    0.0000 C   0  0  0  0  0  0  0  0  0  0  0  0
  3  4  1  0  0  0  0
  4  5  1  0  0  0  0
  4  6  1  0  0  0  0
  6  7  1  0  0  0  0
  7  8  2  0  0  0  0
  8  9  1  0  0  0  0
  9 10  2  0  0  0  0
  6 10  1  0  0  0  0
  8 11  1  0  0  0  0
 11 12  2  0  0  0  0
 12 13  1  0  0  0  0
 13 14  1  0  0  0  0
 14 15  1  0  0  0  0
 15 16  1  0  0  0  0
 16 17  1  0  0  0  0
 11 17  1  0  0  0  0
M  END
>  <Catalog ID>
Z2235592155

>  <PlateID>
1198308-R-SPFL-16

>  <Well>
G04

>  <MW (desalted)>
206.287

>  <ClogP>
0.764

>  <HBD>
1

>  <TPSA>
42.740

>  <RotBonds>
2

$$$$

            

 11 11  0  0  0  0            999 V2000
    0.7145    2.8875    0.0000 C   0  0  0  0  0  0  0  0  0  0  0  0
    0.7145    2.0625    0.0000 P   0  0  0  0  0  0  0  0  0  0  0  0
   -0.1105    2.0625    0.0000 O   0  0  0  0  0  0  0  0  0  0  0  0
    1.5395    2.0625    0.0000 C   0  0  0  0  0  0  0  0  0  0  0  0
    0.7145    1.2375    0.0000 C   0  0  0  0  0  0  0  0  0  0  0  0
    1.4289    0.8250    0.0000 C   0  0  0  0  0  0  0  0  0  0  0  0
    1.4289   -0.0000    0.0000 C   0  0  0  0  0  0  0  0  0  0  0  0
    0.7145   -0.4125    0.0000 C   0  0  0  0  0  0  0  0  0  0  0  0
    0.0000    0.0000    0.0000 C   0  0  0  0  0  0  0  0  0  0  0  0
   -0.7145   -0.4125    0.0000 N   0  0  0  0  0  0  0  0  0  0  0  0
    0.0000    0.8250    0.0000 N   0  0  0  0  0  0  0  0  0  0  0  0
  1  2  1  0  0  0  0
  2  3  2  0  0  0  0
  2  4  1  0  0  0  0
  2  5  1  0  0  0  0
  5  6  2  0  0  0  0
  6  7  1  0  0  0  0
  7  8  2  0  0  0  0
  8  9  1  0  0  0  0
  9 10  1  0  0  0  0
  9 11  2  0  0  0  0
  5 11  1  0  0  0  0
M  END
>  <Catalog ID>
Z3772844506

>  <PlateID>
1198308-R-SPFL-16

>  <Well>
G05

>  <MW (desalted)>
170.149

>  <ClogP>
-2.312

>  <HBD>
1

>  <TPSA>
55.980

>  <RotBonds>
1

$$$$

            

 14 15  0  0  0  0            999 V2000
    0.0000   -1.6500    0.0000 C   0  0  0  0  0  0  0  0  0  0  0  0
    0.7145   -1.2375    0.0000 C   0  0  0  0  0  0  0  0  0  0  0  0
    0.7145   -0.4125    0.0000 C   0  0  0  0  0  0  0  0  0  0  0  0
    1.4289    0.0000    0.0000 C   0  0  0  0  0  0  0  0  0  0  0  0
    2.1434   -0.4125    0.0000 C   0  0  0  0  0  0  0  0  0  0  0  0
    2.8579    0.0000    0.0000 C   0  0  0  0  0  0  0  0  0  0  0  0
    3.5724   -0.4125    0.0000 C   0  0  0  0  0  0  0  0  0  0  0  0
    3.5724   -1.2375    0.0000 C   0  0  0  0  0  0  0  0  0  0  0  0
    2.8579   -1.6500    0.0000 N   0  0  0  0  0  0  0  0  0  0  0  0
    2.1434   -1.2375    0.0000 C   0  0  0  0  0  0  0  0  0  0  0  0
    1.4289   -1.6500    0.0000 C   0  0  0  0  0  0  0  0  0  0  0  0
    2.8579    0.8250    0.0000 C   0  0  0  0  0  0  0  0  0  0  0  0
    2.1434    1.2375    0.0000 O   0  0  0  0  0  0  0  0  0  0  0  0
    3.5724    1.2375    0.0000 O   0  0  0  0  0  0  0  0  0  0  0  0
  1  2  1  0  0  0  0
  2  3  1  0  0  0  0
  3  4  2  0  0  0  0
  4  5  1  0  0  0  0
  5  6  2  0  0  0  0
  6  7  1  0  0  0  0
  7  8  2  0  0  0  0
  8  9  1  0  0  0  0
  9 10  2  0  0  0  0
  5 10  1  0  0  0  0
 10 11  1  0  0  0  0
  2 11  2  0  0  0  0
  6 12  1  0  0  0  0
 12 13  2  0  0  0  0
 12 14  1  0  0  0  0
M  END
>  <Catalog ID>
Z1262520969

>  <PlateID>
1198308-R-SPFL-16

>  <Well>
G06

>  <MW (desalted)>
187.195

>  <ClogP>
2.682

>  <HBD>
1

>  <TPSA>
50.190

>  <RotBonds>
1

$$$$

            

 12 12  0  0  0  0            999 V2000
    0.0000    4.1250    0.0000 O   0  0  0  0  0  0  0  0  0  0  0  0
    0.7145    3.7125    0.0000 C   0  0  0  0  0  0  0  0  0  0  0  0
    1.4289    4.1250    0.0000 O   0  0  0  0  0  0  0  0  0  0  0  0
    0.7145    2.8875    0.0000 C   0  0  0  0  0  0  0  0  0  0  0  0
    0.7145    2.0625    0.0000 C   0  0  0  0  0  0  0  0  0  0  0  0
    0.7145    1.2375    0.0000 C   0  0  0  0  0  0  0  0  0  0  0  0
    1.4289    0.8250    0.0000 C   0  0  0  0  0  0  0  0  0  0  0  0
    1.4289   -0.0000    0.0000 C   0  0  0  0  0  0  0  0  0  0  0  0
    0.7145   -0.4125    0.0000 C   0  0  0  0  0  0  0  0  0  0  0  0
    0.0000    0.0000    0.0000 C   0  0  0  0  0  0  0  0  0  0  0  0
    0.0000    0.8250    0.0000 C   0  0  0  0  0  0  0  0  0  0  0  0
   -0.7145    1.2375    0.0000 Cl  0  0  0  0  0  0  0  0  0  0  0  0
  1  2  1  0  0  0  0
  2  3  2  0  0  0  0
  2  4  1  0  0  0  0
  4  5  3  0  0  0  0
  5  6  1  0  0  0  0
  6  7  2  0  0  0  0
  7  8  1  0  0  0  0
  8  9  2  0  0  0  0
  9 10  1  0  0  0  0
 10 11  2  0  0  0  0
  6 11  1  0  0  0  0
 11 12  1  0  0  0  0
M  END
>  <Catalog ID>
Z1143242515

>  <PlateID>
1198308-R-SPFL-16

>  <Well>
G07

>  <MW (desalted)>
180.588

>  <ClogP>
2.498

>  <HBD>
1

>  <TPSA>
37.300

>  <RotBonds>
2

$$$$

            

 15 16  0  0  0  0            999 V2000
   -0.7145   -2.8875    0.0000 C   0  0  0  0  0  0  0  0  0  0  0  0
    0.0000   -2.4750    0.0000 O   0  0  0  0  0  0  0  0  0  0  0  0
    0.0000   -1.6500    0.0000 C   0  0  0  0  0  0  0  0  0  0  0  0
   -0.7145   -1.2375    0.0000 O   0  0  0  0  0  0  0  0  0  0  0  0
    0.7145   -1.2375    0.0000 C   0  0  0  0  0  0  0  0  0  0  0  0
    0.7145   -0.4125    0.0000 C   0  0  0  0  0  0  0  0  0  0  0  0
    1.4289    0.0000    0.0000 N   0  0  0  0  0  0  0  0  0  0  0  0
    2.1434   -0.4125    0.0000 C   0  0  0  0  0  0  0  0  0  0  0  0
    2.8579    0.0000    0.0000 C   0  0  0  0  0  0  0  0  0  0  0  0
    2.8579    0.8250    0.0000 O   0  0  0  0  0  0  0  0  0  0  0  0
    3.5724   -0.4125    0.0000 C   0  0  0  0  0  0  0  0  0  0  0  0
    3.5724   -1.2375    0.0000 C   0  0  0  0  0  0  0  0  0  0  0  0
    2.8579   -1.6500    0.0000 C   0  0  0  0  0  0  0  0  0  0  0  0
    2.1434   -1.2375    0.0000 C   0  0  0  0  0  0  0  0  0  0  0  0
    1.4289   -1.6500    0.0000 C   0  0  0  0  0  0  0  0  0  0  0  0
  1  2  1  0  0  0  0
  2  3  1  0  0  0  0
  3  4  2  0  0  0  0
  3  5  1  0  0  0  0
  5  6  1  0  0  0  0
  6  7  2  0  0  0  0
  7  8  1  0  0  0  0
  8  9  2  0  0  0  0
  9 10  1  0  0  0  0
  9 11  1  0  0  0  0
 11 12  2  0  0  0  0
 12 13  1  0  0  0  0
 13 14  2  0  0  0  0
  8 14  1  0  0  0  0
 14 15  1  0  0  0  0
  5 15  2  0  0  0  0
M  END
>  <Catalog ID>
Z1509524562

>  <PlateID>
1198308-R-SPFL-16

>  <Well>
G08

>  <MW (desalted)>
203.194

>  <ClogP>
2.234

>  <HBD>
1

>  <TPSA>
59.420

>  <RotBonds>
2

$$$$

            

 11 11  0  0  0  0            999 V2000
    0.0000    0.0000    0.0000 Cl  0  0  0  0  0  0  0  0  0  0  0  0
    2.1022    1.3069    0.0000 O   0  0  0  0  0  0  0  0  0  0  0  0
    2.3571    0.5222    0.0000 C   0  0  0  0  0  0  0  0  0  0  0  0
    1.8722   -0.1452    0.0000 O   0  0  0  0  0  0  0  0  0  0  0  0
    2.3571   -0.8126    0.0000 C   0  0  0  0  0  0  0  0  0  0  0  0
    3.1418   -0.5577    0.0000 C   0  0  0  0  0  0  0  0  0  0  0  0
    3.1418    0.2673    0.0000 C   0  0  0  0  0  0  0  0  0  0  0  0
    3.8562    0.6798    0.0000 C   0  0  0  0  0  0  0  0  0  0  0  0
    4.5707    0.2673    0.0000 C   0  0  0  0  0  0  0  0  0  0  0  0
    4.5707   -0.5577    0.0000 N   0  0  0  0  0  0  0  0  0  0  0  0
    3.8562   -0.9702    0.0000 C   0  0  0  0  0  0  0  0  0  0  0  0
  2  3  2  0  0  0  0
  3  4  1  0  0  0  0
  4  5  1  0  0  0  0
  5  6  1  0  0  0  0
  6  7  2  0  0  0  0
  3  7  1  0  0  0  0
  7  8  1  0  0  0  0
  8  9  1  0  0  0  0
  9 10  1  0  0  0  0
 10 11  1  0  0  0  0
  6 11  1  0  0  0  0
M  END
>  <Catalog ID>
Z4402125740

>  <PlateID>
1198308-R-SPFL-16

>  <Well>
G09

>  <MW (desalted)>
139.152

>  <ClogP>
-0.946

>  <HBD>
1

>  <TPSA>
38.330

>  <RotBonds>
0

$$$$

            

 12 13  0  0  0  0            999 V2000
    0.0407   -0.1459    0.0000 C   0  0  0  0  0  0  0  0  0  0  0  0
    0.6538   -0.6979    0.0000 C   0  0  0  0  0  0  0  0  0  0  0  0
    0.0407   -1.2500    0.0000 C   0  0  0  0  0  0  0  0  0  0  0  0
    1.1387   -0.0305    0.0000 C   0  0  0  0  0  0  0  0  0  0  0  0
    1.9233   -0.2854    0.0000 C   0  0  0  0  0  0  0  0  0  0  0  0
    2.6378    0.1271    0.0000 C   0  0  0  0  0  0  0  0  0  0  0  0
    3.3523   -0.2854    0.0000 C   0  0  0  0  0  0  0  0  0  0  0  0
    3.3523   -1.1104    0.0000 C   0  0  0  0  0  0  0  0  0  0  0  0
    4.0668   -1.5229    0.0000 O   0  0  0  0  0  0  0  0  0  0  0  0
    2.6378   -1.5229    0.0000 C   0  0  0  0  0  0  0  0  0  0  0  0
    1.9233   -1.1104    0.0000 C   0  0  0  0  0  0  0  0  0  0  0  0
    1.1387   -1.3654    0.0000 C   0  0  0  0  0  0  0  0  0  0  0  0
  1  2  1  0  0  0  0
  2  3  1  0  0  0  0
  2  4  1  0  0  0  0
  4  5  1  0  0  0  0
  5  6  2  0  0  0  0
  6  7  1  0  0  0  0
  7  8  2  0  0  0  0
  8  9  1  0  0  0  0
  8 10  1  0  0  0  0
 10 11  2  0  0  0  0
  5 11  1  0  0  0  0
 11 12  1  0  0  0  0
  2 12  1  0  0  0  0
M  END
>  <Catalog ID>
Z1513871406

>  <PlateID>
1198308-R-SPFL-16

>  <Well>
G10

>  <MW (desalted)>
162.228

>  <ClogP>
3.526

>  <HBD>
1

>  <TPSA>
20.230

>  <RotBonds>
0

$$$$

            

 10 10  0  0  0  0            999 V2000
    0.5678    1.9393    0.0000 C   0  0  0  0  0  0  0  0  0  0  0  0
    0.5678    1.1143    0.0000 N   0  0  0  0  0  0  0  0  0  0  0  0
    1.2352    0.6294    0.0000 N   0  0  0  0  0  0  0  0  0  0  0  0
    0.9803   -0.1553    0.0000 C   0  0  0  0  0  0  0  0  0  0  0  0
    0.1553   -0.1553    0.0000 N   0  0  0  0  0  0  0  0  0  0  0  0
   -0.0997    0.6294    0.0000 C   0  0  0  0  0  0  0  0  0  0  0  0
   -0.8843    0.8843    0.0000 N   0  0  0  0  0  0  0  0  0  0  0  0
    1.4652   -0.8227    0.0000 C   0  0  0  0  0  0  0  0  0  0  0  0
    2.2857   -0.7365    0.0000 F   0  0  0  0  0  0  0  0  0  0  0  0
    1.1296   -1.5764    0.0000 F   0  0  0  0  0  0  0  0  0  0  0  0
  1  2  1  0  0  0  0
  2  3  1  0  0  0  0
  3  4  2  0  0  0  0
  4  5  1  0  0  0  0
  5  6  2  0  0  0  0
  2  6  1  0  0  0  0
  6  7  1  0  0  0  0
  4  8  1  0  0  0  0
  8  9  1  0  0  0  0
  8 10  1  0  0  0  0
M  END
>  <Catalog ID>
Z1675005285

>  <PlateID>
1198308-R-SPFL-16

>  <Well>
G11

>  <MW (desalted)>
148.114

>  <ClogP>
-0.841

>  <HBD>
1

>  <TPSA>
56.730

>  <RotBonds>
1

$$$$

            

 14 14  0  0  0  0            999 V2000
    0.0000    0.0000    0.0000 Cl  0  0  0  0  0  0  0  0  0  0  0  0
    2.4353    2.1944    0.0000 C   0  0  0  0  0  0  0  0  0  0  0  0
    2.4353    1.3694    0.0000 C   0  0  0  0  0  0  0  0  0  0  0  0
    3.1027    0.8845    0.0000 N   0  0  0  0  0  0  0  0  0  0  0  0
    2.8478    0.0998    0.0000 C   0  0  0  0  0  0  0  0  0  0  0  0
    2.0228    0.0998    0.0000 N   0  0  0  0  0  0  0  0  0  0  0  0
    1.7679    0.8845    0.0000 O   0  0  0  0  0  0  0  0  0  0  0  0
    3.3327   -0.5676    0.0000 C   0  0  0  0  0  0  0  0  0  0  0  0
    2.5912   -0.9293    0.0000 N   0  0  0  0  0  0  0  0  0  0  0  0
    3.9058    0.0259    0.0000 C   0  0  0  0  0  0  0  0  0  0  0  0
    4.7063   -0.1737    0.0000 C   0  0  0  0  0  0  0  0  0  0  0  0
    4.9337   -0.9668    0.0000 C   0  0  0  0  0  0  0  0  0  0  0  0
    4.3606   -1.5602    0.0000 C   0  0  0  0  0  0  0  0  0  0  0  0
    3.5601   -1.3606    0.0000 C   0  0  0  0  0  0  0  0  0  0  0  0
  2  3  1  0  0  0  0
  3  4  2  0  0  0  0
  4  5  1  0  0  0  0
  5  6  2  0  0  0  0
  6  7  1  0  0  0  0
  3  7  1  0  0  0  0
  5  8  1  0  0  0  0
  8  9  1  0  0  0  0
  8 10  1  0  0  0  0
 10 11  1  0  0  0  0
 11 12  1  0  0  0  0
 12 13  1  0  0  0  0
 13 14  1  0  0  0  0
  8 14  1  0  0  0  0
M  END
>  <Catalog ID>
Z223026204

>  <PlateID>
1198308-R-SPFL-16

>  <Well>
H02

>  <MW (desalted)>
181.235

>  <ClogP>
0.736

>  <HBD>
1

>  <TPSA>
64.940

>  <RotBonds>
1

$$$$

            

 14 15  0  0  0  0            999 V2000
   -0.1067    2.4134    0.0000 N   0  0  0  0  0  0  0  0  0  0  0  0
    0.6078    2.0009    0.0000 C   0  0  0  0  0  0  0  0  0  0  0  0
    1.3222    2.4134    0.0000 C   0  0  0  0  0  0  0  0  0  0  0  0
    1.3222    3.2384    0.0000 C   0  0  0  0  0  0  0  0  0  0  0  0
    2.0367    3.6509    0.0000 C   0  0  0  0  0  0  0  0  0  0  0  0
    2.7512    3.2384    0.0000 C   0  0  0  0  0  0  0  0  0  0  0  0
    2.7512    2.4134    0.0000 C   0  0  0  0  0  0  0  0  0  0  0  0
    3.4656    2.0009    0.0000 C   0  0  0  0  0  0  0  0  0  0  0  0
    3.4656    1.1759    0.0000 N   0  0  0  0  0  0  0  0  0  0  0  0
    4.1331    0.6910    0.0000 C   0  0  0  0  0  0  0  0  0  0  0  0
    3.8781   -0.0937    0.0000 C   0  0  0  0  0  0  0  0  0  0  0  0
    3.0531   -0.0937    0.0000 C   0  0  0  0  0  0  0  0  0  0  0  0
    2.7982    0.6910    0.0000 N   0  0  0  0  0  0  0  0  0  0  0  0
    2.0367    2.0009    0.0000 C   0  0  0  0  0  0  0  0  0  0  0  0
  1  2  1  0  0  0  0
  2  3  1  0  0  0  0
  3  4  2  0  0  0  0
  4  5  1  0  0  0  0
  5  6  2  0  0  0  0
  6  7  1  0  0  0  0
  7  8  1  0  0  0  0
  8  9  1  0  0  0  0
  9 10  1  0  0  0  0
 10 11  2  0  0  0  0
 11 12  1  0  0  0  0
 12 13  2  0  0  0  0
  9 13  1  0  0  0  0
  7 14  2  0  0  0  0
  3 14  1  0  0  0  0
M  END
>  <Catalog ID>
Z239681082

>  <PlateID>
1198308-R-SPFL-16

>  <Well>
H03

>  <MW (desalted)>
187.241

>  <ClogP>
1.167

>  <HBD>
1

>  <TPSA>
43.840

>  <RotBonds>
3

$$$$

            

 12 13  0  0  0  0            999 V2000
    0.0768   -2.3215    0.0000 O   0  0  0  0  0  0  0  0  0  0  0  0
    0.8838   -2.1500    0.0000 C   0  0  0  0  0  0  0  0  0  0  0  0
    1.4358   -2.7631    0.0000 O   0  0  0  0  0  0  0  0  0  0  0  0
    1.1387   -1.3654    0.0000 C   0  0  0  0  0  0  0  0  0  0  0  0
    0.6538   -0.6979    0.0000 C   0  0  0  0  0  0  0  0  0  0  0  0
    1.1387   -0.0305    0.0000 O   0  0  0  0  0  0  0  0  0  0  0  0
    1.9233   -0.2854    0.0000 C   0  0  0  0  0  0  0  0  0  0  0  0
    2.6378    0.1271    0.0000 C   0  0  0  0  0  0  0  0  0  0  0  0
    3.3523   -0.2854    0.0000 C   0  0  0  0  0  0  0  0  0  0  0  0
    3.3523   -1.1104    0.0000 C   0  0  0  0  0  0  0  0  0  0  0  0
    2.6378   -1.5229    0.0000 C   0  0  0  0  0  0  0  0  0  0  0  0
    1.9233   -1.1104    0.0000 C   0  0  0  0  0  0  0  0  0  0  0  0
  1  2  1  0  0  0  0
  2  3  2  0  0  0  0
  2  4  1  0  0  0  0
  4  5  1  0  0  0  0
  5  6  1  0  0  0  0
  6  7  1  0  0  0  0
  7  8  2  0  0  0  0
  8  9  1  0  0  0  0
  9 10  2  0  0  0  0
 10 11  1  0  0  0  0
 11 12  2  0  0  0  0
  4 12  1  0  0  0  0
  7 12  1  0  0  0  0
M  END
>  <Catalog ID>
Z897815480

>  <PlateID>
1198308-R-SPFL-16

>  <Well>
H04

>  <MW (desalted)>
164.158

>  <ClogP>
1.119

>  <HBD>
1

>  <TPSA>
46.530

>  <RotBonds>
1

$$$$

            

 10 10  0  0  0  0            999 V2000
    0.1842    1.8695    0.0000 C   0  0  0  0  0  0  0  0  0  0  0  0
    0.7145    1.2375    0.0000 C   0  0  0  0  0  0  0  0  0  0  0  0
    1.4289    0.8250    0.0000 C   0  0  0  0  0  0  0  0  0  0  0  0
    1.4289   -0.0000    0.0000 C   0  0  0  0  0  0  0  0  0  0  0  0
    0.7145   -0.4125    0.0000 C   0  0  0  0  0  0  0  0  0  0  0  0
    0.0000    0.0000    0.0000 C   0  0  0  0  0  0  0  0  0  0  0  0
    0.0000    0.8250    0.0000 O   0  0  0  0  0  0  0  0  0  0  0  0
    1.2448    1.8695    0.0000 C   0  0  0  0  0  0  0  0  0  0  0  0
    0.9626    2.6447    0.0000 O   0  0  0  0  0  0  0  0  0  0  0  0
    2.0572    1.7262    0.0000 O   0  0  0  0  0  0  0  0  0  0  0  0
  1  2  1  0  0  0  0
  2  3  1  0  0  0  0
  3  4  1  0  0  0  0
  4  5  2  0  0  0  0
  5  6  1  0  0  0  0
  6  7  1  0  0  0  0
  2  7  1  0  0  0  0
  2  8  1  0  0  0  0
  8  9  2  0  0  0  0
  8 10  1  0  0  0  0
M  END
>  <Catalog ID>
Z3072907252

>  <PlateID>
1198308-R-SPFL-16

>  <Well>
H05

>  <MW (desalted)>
142.153

>  <ClogP>
0.716

>  <HBD>
1

>  <TPSA>
46.530

>  <RotBonds>
1

$$$$

            

  8  8  0  0  0  0            999 V2000
    0.5678    1.9393    0.0000 C   0  0  0  0  0  0  0  0  0  0  0  0
    0.5678    1.1143    0.0000 C   0  0  0  0  0  0  0  0  0  0  0  0
    1.2352    0.6294    0.0000 N   0  0  0  0  0  0  0  0  0  0  0  0
    0.9803   -0.1553    0.0000 N   0  0  0  0  0  0  0  0  0  0  0  0
    0.1553   -0.1553    0.0000 C   0  0  0  0  0  0  0  0  0  0  0  0
   -0.3297   -0.8227    0.0000 C   0  0  0  0  0  0  0  0  0  0  0  0
   -0.8146   -1.4901    0.0000 C   0  0  0  0  0  0  0  0  0  0  0  0
   -0.0997    0.6294    0.0000 S   0  0  0  0  0  0  0  0  0  0  0  0
  1  2  1  0  0  0  0
  2  3  2  0  0  0  0
  3  4  1  0  0  0  0
  4  5  2  0  0  0  0
  5  6  1  0  0  0  0
  6  7  3  0  0  0  0
  5  8  1  0  0  0  0
  2  8  1  0  0  0  0
M  END
>  <Catalog ID>
Z2786080548

>  <PlateID>
1198308-R-SPFL-16

>  <Well>
H06

>  <MW (desalted)>
124.164

>  <ClogP>
0.165

>  <HBD>
0

>  <TPSA>
25.780

>  <RotBonds>
0

$$$$

            

 11 12  0  0  0  0            999 V2000
    4.0668    2.3479    0.0000 O   0  0  0  0  0  0  0  0  0  0  0  0
    3.3523    1.9354    0.0000 C   0  0  0  0  0  0  0  0  0  0  0  0
    3.3523    1.1104    0.0000 N   0  0  0  0  0  0  0  0  0  0  0  0
    2.6378    0.6979    0.0000 N   0  0  0  0  0  0  0  0  0  0  0  0
    1.9233    1.1104    0.0000 C   0  0  0  0  0  0  0  0  0  0  0  0
    1.1387    0.8555    0.0000 C   0  0  0  0  0  0  0  0  0  0  0  0
    0.6538    1.5229    0.0000 C   0  0  0  0  0  0  0  0  0  0  0  0
    1.1387    2.1904    0.0000 C   0  0  0  0  0  0  0  0  0  0  0  0
    1.9233    1.9354    0.0000 N   0  0  0  0  0  0  0  0  0  0  0  0
    2.6378    2.3479    0.0000 C   0  0  0  0  0  0  0  0  0  0  0  0
    2.6378    3.1729    0.0000 O   0  0  0  0  0  0  0  0  0  0  0  0
  1  2  2  0  0  0  0
  2  3  1  0  0  0  0
  3  4  1  0  0  0  0
  4  5  2  0  0  0  0
  5  6  1  0  0  0  0
  6  7  1  0  0  0  0
  7  8  1  0  0  0  0
  8  9  1  0  0  0  0
  5  9  1  0  0  0  0
  9 10  1  0  0  0  0
  2 10  1  0  0  0  0
 10 11  2  0  0  0  0
M  END
>  <Catalog ID>
Z4137782151

>  <PlateID>
1198308-R-SPFL-16

>  <Well>
H07

>  <MW (desalted)>
153.139

>  <ClogP>
-0.133

>  <HBD>
1

>  <TPSA>
61.770

>  <RotBonds>
0

$$$$

            

 11 10  0  0  0  0            999 V2000
    0.0000    0.0000    0.0000 Cl  0  0  0  0  0  0  0  0  0  0  0  0
    3.1821    1.7325    0.0000 C   0  0  0  0  0  0  0  0  0  0  0  0
    3.1821    0.9075    0.0000 C   0  0  0  0  0  0  0  0  0  0  0  0
    2.3571    0.9075    0.0000 C   0  0  0  0  0  0  0  0  0  0  0  0
    4.0071    0.9075    0.0000 N   0  0  0  0  0  0  0  0  0  0  0  0
    3.1821    0.0825    0.0000 C   0  0  0  0  0  0  0  0  0  0  0  0
    3.8966   -0.3300    0.0000 N   0  0  0  0  0  0  0  0  0  0  0  0
    3.8966   -1.1550    0.0000 C   0  0  0  0  0  0  0  0  0  0  0  0
    3.1821   -1.5675    0.0000 C   0  0  0  0  0  0  0  0  0  0  0  0
    2.4677   -1.1550    0.0000 C   0  0  0  0  0  0  0  0  0  0  0  0
    2.4677   -0.3300    0.0000 N   0  0  0  0  0  0  0  0  0  0  0  0
  2  3  1  0  0  0  0
  3  4  1  0  0  0  0
  3  5  1  0  0  0  0
  3  6  1  0  0  0  0
  6  7  2  0  0  0  0
  7  8  1  0  0  0  0
  8  9  2  0  0  0  0
  9 10  1  0  0  0  0
 10 11  2  0  0  0  0
  6 11  1  0  0  0  0
M  END
>  <Catalog ID>
Z1198729433

>  <PlateID>
1198308-R-SPFL-16

>  <Well>
H08

>  <MW (desalted)>
137.182

>  <ClogP>
-0.652

>  <HBD>
1

>  <TPSA>
51.800

>  <RotBonds>
1

$$$$

            

 14 15  0  0  0  0            999 V2000
    0.7145   -0.4125    0.0000 O   0  0  0  0  0  0  0  0  0  0  0  0
    0.7145   -1.2375    0.0000 C   0  0  0  0  0  0  0  0  0  0  0  0
    1.4289   -1.6500    0.0000 C   0  0  0  0  0  0  0  0  0  0  0  0
    1.4289   -2.4750    0.0000 C   0  0  0  0  0  0  0  0  0  0  0  0
    0.7145   -2.8875    0.0000 N   0  0  0  0  0  0  0  0  0  0  0  0
    0.0000   -2.4750    0.0000 C   0  0  0  0  0  0  0  0  0  0  0  0
   -0.7145   -2.8875    0.0000 O   0  0  0  0  0  0  0  0  0  0  0  0
    0.0000   -1.6500    0.0000 N   0  0  0  0  0  0  0  0  0  0  0  0
   -0.7145   -1.2375    0.0000 C   0  0  0  0  0  0  0  0  0  0  0  0
   -1.4289   -1.6500    0.0000 C   0  0  0  0  0  0  0  0  0  0  0  0
   -2.1434   -1.2375    0.0000 C   0  0  0  0  0  0  0  0  0  0  0  0
   -2.1434   -0.4125    0.0000 C   0  0  0  0  0  0  0  0  0  0  0  0
   -1.4289    0.0000    0.0000 C   0  0  0  0  0  0  0  0  0  0  0  0
   -0.7145   -0.4125    0.0000 C   0  0  0  0  0  0  0  0  0  0  0  0
  1  2  2  0  0  0  0
  2  3  1  0  0  0  0
  3  4  1  0  0  0  0
  4  5  1  0  0  0  0
  5  6  1  0  0  0  0
  6  7  2  0  0  0  0
  6  8  1  0  0  0  0
  2  8  1  0  0  0  0
  8  9  1  0  0  0  0
  9 10  2  0  0  0  0
 10 11  1  0  0  0  0
 11 12  2  0  0  0  0
 12 13  1  0  0  0  0
 13 14  2  0  0  0  0
  9 14  1  0  0  0  0
M  END
>  <Catalog ID>
Z431947990

>  <PlateID>
1198308-R-SPFL-16

>  <Well>
H09

>  <MW (desalted)>
190.199

>  <ClogP>
0.543

>  <HBD>
1

>  <TPSA>
49.410

>  <RotBonds>
1

$$$$

            

 12 13  0  0  0  0            999 V2000
    1.4289   -2.4750    0.0000 C   0  0  0  0  0  0  0  0  0  0  0  0
    1.4289   -1.6500    0.0000 C   0  0  0  0  0  0  0  0  0  0  0  0
    0.7145   -1.2375    0.0000 C   0  0  0  0  0  0  0  0  0  0  0  0
    0.0000   -1.6500    0.0000 N   0  0  0  0  0  0  0  0  0  0  0  0
    0.7145   -0.4125    0.0000 C   0  0  0  0  0  0  0  0  0  0  0  0
    1.4289    0.0000    0.0000 N   0  0  0  0  0  0  0  0  0  0  0  0
    2.1434   -0.4125    0.0000 C   0  0  0  0  0  0  0  0  0  0  0  0
    2.8579    0.0000    0.0000 C   0  0  0  0  0  0  0  0  0  0  0  0
    3.5724   -0.4125    0.0000 C   0  0  0  0  0  0  0  0  0  0  0  0
    3.5724   -1.2375    0.0000 C   0  0  0  0  0  0  0  0  0  0  0  0
    2.8579   -1.6500    0.0000 C   0  0  0  0  0  0  0  0  0  0  0  0
    2.1434   -1.2375    0.0000 C   0  0  0  0  0  0  0  0  0  0  0  0
  1  2  1  0  0  0  0
  2  3  2  0  0  0  0
  3  4  1  0  0  0  0
  3  5  1  0  0  0  0
  5  6  2  0  0  0  0
  6  7  1  0  0  0  0
  7  8  2  0  0  0  0
  8  9  1  0  0  0  0
  9 10  2  0  0  0  0
 10 11  1  0  0  0  0
 11 12  2  0  0  0  0
  2 12  1  0  0  0  0
  7 12  1  0  0  0  0
M  END
>  <Catalog ID>
Z1198160719

>  <PlateID>
1198308-R-SPFL-16

>  <Well>
H10

>  <MW (desalted)>
158.200

>  <ClogP>
2.151

>  <HBD>
1

>  <TPSA>
38.910

>  <RotBonds>
0

$$$$

            

 10 11  0  0  0  0            999 V2000
    0.8838   -2.1500    0.0000 N   0  0  0  0  0  0  0  0  0  0  0  0
    1.1387   -1.3654    0.0000 C   0  0  0  0  0  0  0  0  0  0  0  0
    0.6538   -0.6979    0.0000 N   0  0  0  0  0  0  0  0  0  0  0  0
    1.1387   -0.0305    0.0000 O   0  0  0  0  0  0  0  0  0  0  0  0
    1.9233   -0.2854    0.0000 C   0  0  0  0  0  0  0  0  0  0  0  0
    2.6378    0.1271    0.0000 C   0  0  0  0  0  0  0  0  0  0  0  0
    3.3523   -0.2854    0.0000 N   0  0  0  0  0  0  0  0  0  0  0  0
    3.3523   -1.1104    0.0000 C   0  0  0  0  0  0  0  0  0  0  0  0
    2.6378   -1.5229    0.0000 C   0  0  0  0  0  0  0  0  0  0  0  0
    1.9233   -1.1104    0.0000 C   0  0  0  0  0  0  0  0  0  0  0  0
  1  2  1  0  0  0  0
  2  3  2  0  0  0  0
  3  4  1  0  0  0  0
  4  5  1  0  0  0  0
  5  6  2  0  0  0  0
  6  7  1  0  0  0  0
  7  8  2  0  0  0  0
  8  9  1  0  0  0  0
  9 10  2  0  0  0  0
  2 10  1  0  0  0  0
  5 10  1  0  0  0  0
M  END
>  <Catalog ID>
Z1203581328

>  <PlateID>
1198308-R-SPFL-16

>  <Well>
H11

>  <MW (desalted)>
135.123

>  <ClogP>
0.431

>  <HBD>
1

>  <TPSA>
64.940

>  <RotBonds>
0

$$$$

            

 15 16  0  0  0  0            999 V2000
    1.4289   -1.6500    0.0000 C   0  0  0  0  0  0  0  0  0  0  0  0
    1.4289   -2.4750    0.0000 C   0  0  0  0  0  0  0  0  0  0  0  0
    2.0964   -2.9599    0.0000 N   0  0  0  0  0  0  0  0  0  0  0  0
    1.8414   -3.7445    0.0000 N   0  0  0  0  0  0  0  0  0  0  0  0
    1.0164   -3.7445    0.0000 C   0  0  0  0  0  0  0  0  0  0  0  0
    0.5315   -4.4120    0.0000 N   0  0  0  0  0  0  0  0  0  0  0  0
    0.8671   -5.1657    0.0000 C   0  0  0  0  0  0  0  0  0  0  0  0
    1.6876   -5.2519    0.0000 O   0  0  0  0  0  0  0  0  0  0  0  0
    0.3822   -5.8331    0.0000 C   0  0  0  0  0  0  0  0  0  0  0  0
    0.7177   -6.5868    0.0000 C   0  0  0  0  0  0  0  0  0  0  0  0
    0.2328   -7.2542    0.0000 C   0  0  0  0  0  0  0  0  0  0  0  0
   -0.5877   -7.1680    0.0000 C   0  0  0  0  0  0  0  0  0  0  0  0
   -0.9232   -6.4143    0.0000 C   0  0  0  0  0  0  0  0  0  0  0  0
   -0.4383   -5.7469    0.0000 C   0  0  0  0  0  0  0  0  0  0  0  0
    0.7615   -2.9599    0.0000 S   0  0  0  0  0  0  0  0  0  0  0  0
  1  2  1  0  0  0  0
  2  3  2  0  0  0  0
  3  4  1  0  0  0  0
  4  5  2  0  0  0  0
  5  6  1  0  0  0  0
  6  7  1  0  0  0  0
  7  8  2  0  0  0  0
  7  9  1  0  0  0  0
  9 10  2  0  0  0  0
 10 11  1  0  0  0  0
 11 12  2  0  0  0  0
 12 13  1  0  0  0  0
 13 14  2  0  0  0  0
  9 14  1  0  0  0  0
  5 15  1  0  0  0  0
  2 15  1  0  0  0  0
M  END
>  <Catalog ID>
Z29672864

>  <PlateID>
1198308-R-SPFL-17

>  <Well>
A02

>  <MW (desalted)>
219.263

>  <ClogP>
1.668

>  <HBD>
1

>  <TPSA>
54.880

>  <RotBonds>
2

$$$$

            

 14 15  0  0  0  0            999 V2000
    2.0367   -0.4741    0.0000 N   0  0  0  0  0  0  0  0  0  0  0  0
    2.0367   -1.2991    0.0000 C   0  0  0  0  0  0  0  0  0  0  0  0
    2.7041   -1.7840    0.0000 N   0  0  0  0  0  0  0  0  0  0  0  0
    2.4492   -2.5687    0.0000 N   0  0  0  0  0  0  0  0  0  0  0  0
    1.6242   -2.5687    0.0000 C   0  0  0  0  0  0  0  0  0  0  0  0
    1.1393   -3.2361    0.0000 C   0  0  0  0  0  0  0  0  0  0  0  0
    0.3188   -3.1499    0.0000 C   0  0  0  0  0  0  0  0  0  0  0  0
   -0.1661   -3.8173    0.0000 C   0  0  0  0  0  0  0  0  0  0  0  0
   -0.9866   -3.7311    0.0000 C   0  0  0  0  0  0  0  0  0  0  0  0
   -1.3222   -2.9774    0.0000 C   0  0  0  0  0  0  0  0  0  0  0  0
   -2.1426   -2.8911    0.0000 Cl  0  0  0  0  0  0  0  0  0  0  0  0
   -0.8372   -2.3099    0.0000 C   0  0  0  0  0  0  0  0  0  0  0  0
   -0.0168   -2.3962    0.0000 C   0  0  0  0  0  0  0  0  0  0  0  0
    1.3693   -1.7840    0.0000 O   0  0  0  0  0  0  0  0  0  0  0  0
  1  2  1  0  0  0  0
  2  3  2  0  0  0  0
  3  4  1  0  0  0  0
  4  5  2  0  0  0  0
  5  6  1  0  0  0  0
  6  7  1  0  0  0  0
  7  8  2  0  0  0  0
  8  9  1  0  0  0  0
  9 10  2  0  0  0  0
 10 11  1  0  0  0  0
 10 12  1  0  0  0  0
 12 13  2  0  0  0  0
  7 13  1  0  0  0  0
  5 14  1  0  0  0  0
  2 14  1  0  0  0  0
M  END
>  <Catalog ID>
Z316096932

>  <PlateID>
1198308-R-SPFL-17

>  <Well>
A03

>  <MW (desalted)>
209.632

>  <ClogP>
1.267

>  <HBD>
1

>  <TPSA>
64.940

>  <RotBonds>
2

$$$$

            

 14 15  0  0  0  0            999 V2000
    2.3183   -1.1364    0.0000 C   0  0  0  0  0  0  0  0  0  0  0  0
    2.3183   -1.9614    0.0000 C   0  0  0  0  0  0  0  0  0  0  0  0
    2.9858   -2.4463    0.0000 C   0  0  0  0  0  0  0  0  0  0  0  0
    2.7308   -3.2309    0.0000 C   0  0  0  0  0  0  0  0  0  0  0  0
    3.2158   -3.8983    0.0000 C   0  0  0  0  0  0  0  0  0  0  0  0
    4.0362   -3.8121    0.0000 N   0  0  0  0  0  0  0  0  0  0  0  0
    4.5212   -4.4795    0.0000 C   0  0  0  0  0  0  0  0  0  0  0  0
    5.3462   -4.4795    0.0000 N   0  0  0  0  0  0  0  0  0  0  0  0
    5.6011   -5.2642    0.0000 N   0  0  0  0  0  0  0  0  0  0  0  0
    4.9337   -5.7491    0.0000 C   0  0  0  0  0  0  0  0  0  0  0  0
    4.2662   -5.2642    0.0000 S   0  0  0  0  0  0  0  0  0  0  0  0
    1.9058   -3.2309    0.0000 C   0  0  0  0  0  0  0  0  0  0  0  0
    1.4209   -3.8983    0.0000 C   0  0  0  0  0  0  0  0  0  0  0  0
    1.6509   -2.4463    0.0000 O   0  0  0  0  0  0  0  0  0  0  0  0
  1  2  1  0  0  0  0
  2  3  2  0  0  0  0
  3  4  1  0  0  0  0
  4  5  1  0  0  0  0
  5  6  1  0  0  0  0
  6  7  1  0  0  0  0
  7  8  2  0  0  0  0
  8  9  1  0  0  0  0
  9 10  2  0  0  0  0
 10 11  1  0  0  0  0
  7 11  1  0  0  0  0
  4 12  2  0  0  0  0
 12 13  1  0  0  0  0
 12 14  1  0  0  0  0
  2 14  1  0  0  0  0
M  END
>  <Catalog ID>
Z1610969902

>  <PlateID>
1198308-R-SPFL-17

>  <Well>
A04

>  <MW (desalted)>
209.268

>  <ClogP>
1.952

>  <HBD>
1

>  <TPSA>
50.950

>  <RotBonds>
3

$$$$

            

 14 15  0  0  0  0            999 V2000
   -1.0164    8.1395    0.0000 C   0  0  0  0  0  0  0  0  0  0  0  0
   -0.3020    7.7270    0.0000 C   0  0  0  0  0  0  0  0  0  0  0  0
    0.4125    8.1395    0.0000 C   0  0  0  0  0  0  0  0  0  0  0  0
    1.1270    7.7270    0.0000 C   0  0  0  0  0  0  0  0  0  0  0  0
    1.1270    6.9020    0.0000 C   0  0  0  0  0  0  0  0  0  0  0  0
    1.8414    6.4895    0.0000 C   0  0  0  0  0  0  0  0  0  0  0  0
    1.8414    5.6645    0.0000 N   0  0  0  0  0  0  0  0  0  0  0  0
    2.5559    5.2520    0.0000 C   0  0  0  0  0  0  0  0  0  0  0  0
    3.2704    5.6645    0.0000 O   0  0  0  0  0  0  0  0  0  0  0  0
    2.5559    4.4270    0.0000 C   0  0  0  0  0  0  0  0  0  0  0  0
    2.9684    3.7125    0.0000 C   0  0  0  0  0  0  0  0  0  0  0  0
    2.1434    3.7125    0.0000 C   0  0  0  0  0  0  0  0  0  0  0  0
    0.4125    6.4895    0.0000 C   0  0  0  0  0  0  0  0  0  0  0  0
   -0.3020    6.9020    0.0000 N   0  0  0  0  0  0  0  0  0  0  0  0
  1  2  1  0  0  0  0
  2  3  2  0  0  0  0
  3  4  1  0  0  0  0
  4  5  2  0  0  0  0
  5  6  1  0  0  0  0
  6  7  1  0  0  0  0
  7  8  1  0  0  0  0
  8  9  2  0  0  0  0
  8 10  1  0  0  0  0
 10 11  1  0  0  0  0
 11 12  1  0  0  0  0
 10 12  1  0  0  0  0
  5 13  1  0  0  0  0
 13 14  2  0  0  0  0
  2 14  1  0  0  0  0
M  END
>  <Catalog ID>
Z437516054

>  <PlateID>
1198308-R-SPFL-17

>  <Well>
A05

>  <MW (desalted)>
190.242

>  <ClogP>
0.536

>  <HBD>
1

>  <TPSA>
41.990

>  <RotBonds>
3

$$$$

            

 11 12  0  0  0  0            999 V2000
    3.1690    1.5257    0.0000 O   0  0  0  0  0  0  0  0  0  0  0  0
    3.3526    0.7214    0.0000 C   0  0  0  0  0  0  0  0  0  0  0  0
    4.1569    0.5378    0.0000 N   0  0  0  0  0  0  0  0  0  0  0  0
    4.5149   -0.2055    0.0000 C   0  0  0  0  0  0  0  0  0  0  0  0
    4.1569   -0.9488    0.0000 C   0  0  0  0  0  0  0  0  0  0  0  0
    3.3526   -1.1324    0.0000 N   0  0  0  0  0  0  0  0  0  0  0  0
    2.7076   -0.6180    0.0000 C   0  0  0  0  0  0  0  0  0  0  0  0
    1.9230   -0.8729    0.0000 C   0  0  0  0  0  0  0  0  0  0  0  0
    1.4380   -0.2055    0.0000 C   0  0  0  0  0  0  0  0  0  0  0  0
    1.9230    0.4619    0.0000 S   0  0  0  0  0  0  0  0  0  0  0  0
    2.7076    0.2070    0.0000 C   0  0  0  0  0  0  0  0  0  0  0  0
  1  2  2  0  0  0  0
  2  3  1  0  0  0  0
  3  4  1  0  0  0  0
  4  5  1  0  0  0  0
  5  6  1  0  0  0  0
  6  7  1  0  0  0  0
  7  8  1  0  0  0  0
  8  9  2  0  0  0  0
  9 10  1  0  0  0  0
 10 11  1  0  0  0  0
  2 11  1  0  0  0  0
  7 11  2  0  0  0  0
M  END
>  <Catalog ID>
Z1142498053

>  <PlateID>
1198308-R-SPFL-17

>  <Well>
A06

>  <MW (desalted)>
168.216

>  <ClogP>
0.528

>  <HBD>
2

>  <TPSA>
41.130

>  <RotBonds>
0

$$$$

            

 13 13  0  0  0  0            999 V2000
    0.0000    0.0000    0.0000 Cl  0  0  0  0  0  0  0  0  0  0  0  0
    2.6052   -1.3673    0.0000 C   0  0  0  0  0  0  0  0  0  0  0  0
    3.4121   -1.1958    0.0000 C   0  0  0  0  0  0  0  0  0  0  0  0
    3.6671   -0.4111    0.0000 N   0  0  0  0  0  0  0  0  0  0  0  0
    3.1821    0.2563    0.0000 C   0  0  0  0  0  0  0  0  0  0  0  0
    2.3571    0.2563    0.0000 N   0  0  0  0  0  0  0  0  0  0  0  0
    3.6671    0.9237    0.0000 N   0  0  0  0  0  0  0  0  0  0  0  0
    4.4517    0.6688    0.0000 C   0  0  0  0  0  0  0  0  0  0  0  0
    5.1662    1.0813    0.0000 C   0  0  0  0  0  0  0  0  0  0  0  0
    5.8806    0.6688    0.0000 C   0  0  0  0  0  0  0  0  0  0  0  0
    5.8806   -0.1562    0.0000 C   0  0  0  0  0  0  0  0  0  0  0  0
    5.1662   -0.5687    0.0000 N   0  0  0  0  0  0  0  0  0  0  0  0
    4.4517   -0.1562    0.0000 C   0  0  0  0  0  0  0  0  0  0  0  0
  2  3  1  0  0  0  0
  3  4  1  0  0  0  0
  4  5  1  0  0  0  0
  5  6  1  0  0  0  0
  5  7  2  0  0  0  0
  7  8  1  0  0  0  0
  8  9  2  0  0  0  0
  9 10  1  0  0  0  0
 10 11  2  0  0  0  0
 11 12  1  0  0  0  0
 12 13  2  0  0  0  0
  4 13  1  0  0  0  0
  8 13  1  0  0  0  0
M  END
>  <Catalog ID>
Z2211231848

>  <PlateID>
1198308-R-SPFL-17

>  <Well>
A07

>  <MW (desalted)>
162.192

>  <ClogP>
0.933

>  <HBD>
1

>  <TPSA>
56.730

>  <RotBonds>
1

$$$$

            

 16 17  0  0  0  0            999 V2000
    1.4289    0.0000    0.0000 O   0  0  0  0  0  0  0  0  0  0  0  0
    2.1434   -0.4125    0.0000 C   0  0  0  0  0  0  0  0  0  0  0  0
    2.8579    0.0000    0.0000 O   0  0  0  0  0  0  0  0  0  0  0  0
    2.1434   -1.2375    0.0000 C   0  0  0  0  0  0  0  0  0  0  0  0
    2.8579   -1.6500    0.0000 C   0  0  0  0  0  0  0  0  0  0  0  0
    2.8579   -2.4750    0.0000 C   0  0  0  0  0  0  0  0  0  0  0  0
    2.1434   -2.8875    0.0000 C   0  0  0  0  0  0  0  0  0  0  0  0
    2.1434   -3.7125    0.0000 O   0  0  0  0  0  0  0  0  0  0  0  0
    1.4289   -4.1250    0.0000 C   0  0  0  0  0  0  0  0  0  0  0  0
    1.4289   -4.9500    0.0000 C   0  0  0  0  0  0  0  0  0  0  0  0
    0.7145   -5.3625    0.0000 C   0  0  0  0  0  0  0  0  0  0  0  0
   -0.0000   -4.9500    0.0000 C   0  0  0  0  0  0  0  0  0  0  0  0
    0.0000   -4.1250    0.0000 C   0  0  0  0  0  0  0  0  0  0  0  0
    0.7145   -3.7125    0.0000 C   0  0  0  0  0  0  0  0  0  0  0  0
    1.4289   -2.4750    0.0000 C   0  0  0  0  0  0  0  0  0  0  0  0
    1.4289   -1.6500    0.0000 N   0  0  0  0  0  0  0  0  0  0  0  0
  1  2  1  0  0  0  0
  2  3  2  0  0  0  0
  2  4  1  0  0  0  0
  4  5  2  0  0  0  0
  5  6  1  0  0  0  0
  6  7  2  0  0  0  0
  7  8  1  0  0  0  0
  8  9  1  0  0  0  0
  9 10  2  0  0  0  0
 10 11  1  0  0  0  0
 11 12  2  0  0  0  0
 12 13  1  0  0  0  0
 13 14  2  0  0  0  0
  9 14  1  0  0  0  0
  7 15  1  0  0  0  0
 15 16  2  0  0  0  0
  4 16  1  0  0  0  0
M  END
>  <Catalog ID>
Z1498961492

>  <PlateID>
1198308-R-SPFL-17

>  <Well>
A08

>  <MW (desalted)>
215.205

>  <ClogP>
3.097

>  <HBD>
1

>  <TPSA>
59.420

>  <RotBonds>
3

$$$$

            

 12 14  0  0  0  0            999 V2000
    2.4068   -1.8614    0.0000 C   0  0  0  0  0  0  0  0  0  0  0  0
    1.7299   -1.3898    0.0000 N   0  0  0  0  0  0  0  0  0  0  0  0
    1.9693   -0.6003    0.0000 N   0  0  0  0  0  0  0  0  0  0  0  0
    2.7942   -0.5840    0.0000 C   0  0  0  0  0  0  0  0  0  0  0  0
    3.4519   -0.0860    0.0000 S   0  0  0  0  0  0  0  0  0  0  0  0
    4.1288   -0.5577    0.0000 C   0  0  0  0  0  0  0  0  0  0  0  0
    4.9322   -0.3703    0.0000 C   0  0  0  0  0  0  0  0  0  0  0  0
    5.4962   -0.9724    0.0000 C   0  0  0  0  0  0  0  0  0  0  0  0
    5.2568   -1.7619    0.0000 C   0  0  0  0  0  0  0  0  0  0  0  0
    4.4534   -1.9493    0.0000 C   0  0  0  0  0  0  0  0  0  0  0  0
    3.8894   -1.3472    0.0000 C   0  0  0  0  0  0  0  0  0  0  0  0
    3.0645   -1.3635    0.0000 N   0  0  0  0  0  0  0  0  0  0  0  0
  1  2  2  0  0  0  0
  2  3  1  0  0  0  0
  3  4  2  0  0  0  0
  4  5  1  0  0  0  0
  5  6  1  0  0  0  0
  6  7  2  0  0  0  0
  7  8  1  0  0  0  0
  8  9  2  0  0  0  0
  9 10  1  0  0  0  0
 10 11  2  0  0  0  0
  6 11  1  0  0  0  0
 11 12  1  0  0  0  0
  1 12  1  0  0  0  0
  4 12  1  0  0  0  0
M  END
>  <Catalog ID>
Z56791559

>  <PlateID>
1198308-R-SPFL-17

>  <Well>
A09

>  <MW (desalted)>
175.210

>  <ClogP>
1.704

>  <HBD>
0

>  <TPSA>
30.190

>  <RotBonds>
0

$$$$

            

 13 14  0  0  0  0            999 V2000
    1.4289   -2.4750    0.0000 O   0  0  0  0  0  0  0  0  0  0  0  0
    1.4289   -1.6500    0.0000 C   0  0  0  0  0  0  0  0  0  0  0  0
    0.7145   -1.2375    0.0000 C   0  0  0  0  0  0  0  0  0  0  0  0
    0.7145   -0.4125    0.0000 C   0  0  0  0  0  0  0  0  0  0  0  0
    1.4289    0.0000    0.0000 N   0  0  0  0  0  0  0  0  0  0  0  0
    2.1434   -0.4125    0.0000 C   0  0  0  0  0  0  0  0  0  0  0  0
    2.8579    0.0000    0.0000 C   0  0  0  0  0  0  0  0  0  0  0  0
    3.5724   -0.4125    0.0000 C   0  0  0  0  0  0  0  0  0  0  0  0
    4.2868   -0.0000    0.0000 F   0  0  0  0  0  0  0  0  0  0  0  0
    3.5724   -1.2375    0.0000 C   0  0  0  0  0  0  0  0  0  0  0  0
    2.8579   -1.6500    0.0000 C   0  0  0  0  0  0  0  0  0  0  0  0
    2.8579   -2.4750    0.0000 F   0  0  0  0  0  0  0  0  0  0  0  0
    2.1434   -1.2375    0.0000 C   0  0  0  0  0  0  0  0  0  0  0  0
  1  2  1  0  0  0  0
  2  3  2  0  0  0  0
  3  4  1  0  0  0  0
  4  5  2  0  0  0  0
  5  6  1  0  0  0  0
  6  7  2  0  0  0  0
  7  8  1  0  0  0  0
  8  9  1  0  0  0  0
  8 10  2  0  0  0  0
 10 11  1  0  0  0  0
 11 12  1  0  0  0  0
 11 13  2  0  0  0  0
  2 13  1  0  0  0  0
  6 13  1  0  0  0  0
M  END
>  <Catalog ID>
Z2757417264

>  <PlateID>
1198308-R-SPFL-17

>  <Well>
A10

>  <MW (desalted)>
181.139

>  <ClogP>
2.733

>  <HBD>
1

>  <TPSA>
33.120

>  <RotBonds>
0

$$$$

            

 15 16  0  0  0  0            999 V2000
    1.3222   -0.0616    0.0000 O   0  0  0  0  0  0  0  0  0  0  0  0
    1.3222    0.7634    0.0000 C   0  0  0  0  0  0  0  0  0  0  0  0
    0.6078    1.1759    0.0000 O   0  0  0  0  0  0  0  0  0  0  0  0
    2.0367    1.1759    0.0000 C   0  0  0  0  0  0  0  0  0  0  0  0
    2.0367    2.0009    0.0000 C   0  0  0  0  0  0  0  0  0  0  0  0
    2.7512    2.4134    0.0000 C   0  0  0  0  0  0  0  0  0  0  0  0
    3.4656    2.0009    0.0000 C   0  0  0  0  0  0  0  0  0  0  0  0
    4.1801    2.4134    0.0000 Cl  0  0  0  0  0  0  0  0  0  0  0  0
    3.4656    1.1759    0.0000 C   0  0  0  0  0  0  0  0  0  0  0  0
    2.7512    0.7634    0.0000 C   0  0  0  0  0  0  0  0  0  0  0  0
    2.7512   -0.0616    0.0000 C   0  0  0  0  0  0  0  0  0  0  0  0
    3.4186   -0.5465    0.0000 C   0  0  0  0  0  0  0  0  0  0  0  0
    3.1637   -1.3312    0.0000 C   0  0  0  0  0  0  0  0  0  0  0  0
    2.3387   -1.3312    0.0000 S   0  0  0  0  0  0  0  0  0  0  0  0
    2.0837   -0.5465    0.0000 C   0  0  0  0  0  0  0  0  0  0  0  0
  1  2  1  0  0  0  0
  2  3  2  0  0  0  0
  2  4  1  0  0  0  0
  4  5  2  0  0  0  0
  5  6  1  0  0  0  0
  6  7  2  0  0  0  0
  7  8  1  0  0  0  0
  7  9  1  0  0  0  0
  9 10  2  0  0  0  0
  4 10  1  0  0  0  0
 10 11  1  0  0  0  0
 11 12  1  0  0  0  0
 12 13  2  0  0  0  0
 13 14  1  0  0  0  0
 14 15  1  0  0  0  0
 11 15  2  0  0  0  0
M  END
>  <Catalog ID>
Z1509570934

>  <PlateID>
1198308-R-SPFL-17

>  <Well>
A11

>  <MW (desalted)>
238.690

>  <ClogP>
3.445

>  <HBD>
1

>  <TPSA>
37.300

>  <RotBonds>
2

$$$$

            

 16 17  0  0  0  0            999 V2000
    1.4289   -1.6500    0.0000 C   0  0  0  0  0  0  0  0  0  0  0  0
    1.4289   -2.4750    0.0000 C   0  0  0  0  0  0  0  0  0  0  0  0
    2.0964   -2.9599    0.0000 C   0  0  0  0  0  0  0  0  0  0  0  0
    1.8414   -3.7445    0.0000 C   0  0  0  0  0  0  0  0  0  0  0  0
    1.0164   -3.7445    0.0000 O   0  0  0  0  0  0  0  0  0  0  0  0
    0.7615   -2.9599    0.0000 N   0  0  0  0  0  0  0  0  0  0  0  0
    2.3264   -4.4120    0.0000 C   0  0  0  0  0  0  0  0  0  0  0  0
    1.9908   -5.1657    0.0000 O   0  0  0  0  0  0  0  0  0  0  0  0
    3.1468   -4.3257    0.0000 N   0  0  0  0  0  0  0  0  0  0  0  0
    3.6318   -4.9932    0.0000 C   0  0  0  0  0  0  0  0  0  0  0  0
    4.4522   -4.9070    0.0000 C   0  0  0  0  0  0  0  0  0  0  0  0
    4.9372   -5.5744    0.0000 C   0  0  0  0  0  0  0  0  0  0  0  0
    4.6016   -6.3281    0.0000 C   0  0  0  0  0  0  0  0  0  0  0  0
    3.7811   -6.4143    0.0000 C   0  0  0  0  0  0  0  0  0  0  0  0
    3.4456   -7.1680    0.0000 F   0  0  0  0  0  0  0  0  0  0  0  0
    3.2962   -5.7469    0.0000 C   0  0  0  0  0  0  0  0  0  0  0  0
  1  2  1  0  0  0  0
  2  3  1  0  0  0  0
  3  4  2  0  0  0  0
  4  5  1  0  0  0  0
  5  6  1  0  0  0  0
  2  6  2  0  0  0  0
  4  7  1  0  0  0  0
  7  8  2  0  0  0  0
  7  9  1  0  0  0  0
  9 10  1  0  0  0  0
 10 11  2  0  0  0  0
 11 12  1  0  0  0  0
 12 13  2  0  0  0  0
 13 14  1  0  0  0  0
 14 15  1  0  0  0  0
 14 16  2  0  0  0  0
 10 16  1  0  0  0  0
M  END
>  <Catalog ID>
Z90711766

>  <PlateID>
1198308-R-SPFL-17

>  <Well>
B02

>  <MW (desalted)>
220.200

>  <ClogP>
1.879

>  <HBD>
1

>  <TPSA>
55.130

>  <RotBonds>
2

$$$$

            

 11 12  0  0  0  0            999 V2000
    4.0668    2.3479    0.0000 C   0  0  0  0  0  0  0  0  0  0  0  0
    3.3523    1.9354    0.0000 C   0  0  0  0  0  0  0  0  0  0  0  0
    3.3523    1.1104    0.0000 C   0  0  0  0  0  0  0  0  0  0  0  0
    2.6378    0.6979    0.0000 C   0  0  0  0  0  0  0  0  0  0  0  0
    2.6378   -0.1271    0.0000 O   0  0  0  0  0  0  0  0  0  0  0  0
    1.9233    1.1104    0.0000 N   0  0  0  0  0  0  0  0  0  0  0  0
    1.1387    0.8555    0.0000 N   0  0  0  0  0  0  0  0  0  0  0  0
    0.6538    1.5229    0.0000 C   0  0  0  0  0  0  0  0  0  0  0  0
    1.1387    2.1904    0.0000 C   0  0  0  0  0  0  0  0  0  0  0  0
    1.9233    1.9354    0.0000 C   0  0  0  0  0  0  0  0  0  0  0  0
    2.6378    2.3479    0.0000 N   0  0  0  0  0  0  0  0  0  0  0  0
  1  2  1  0  0  0  0
  2  3  2  0  0  0  0
  3  4  1  0  0  0  0
  4  5  2  0  0  0  0
  4  6  1  0  0  0  0
  6  7  1  0  0  0  0
  7  8  2  0  0  0  0
  8  9  1  0  0  0  0
  9 10  2  0  0  0  0
  6 10  1  0  0  0  0
 10 11  1  0  0  0  0
  2 11  1  0  0  0  0
M  END
>  <Catalog ID>
Z448099478

>  <PlateID>
1198308-R-SPFL-17

>  <Well>
B03

>  <MW (desalted)>
149.150

>  <ClogP>
-0.281

>  <HBD>
1

>  <TPSA>
46.920

>  <RotBonds>
0

$$$$

            

 16 17  0  0  0  0            999 V2000
    2.7512   -1.7116    0.0000 C   0  0  0  0  0  0  0  0  0  0  0  0
    2.7512   -2.5366    0.0000 C   0  0  0  0  0  0  0  0  0  0  0  0
    3.4186   -3.0215    0.0000 N   0  0  0  0  0  0  0  0  0  0  0  0
    3.1637   -3.8062    0.0000 C   0  0  0  0  0  0  0  0  0  0  0  0
    3.6486   -4.4736    0.0000 C   0  0  0  0  0  0  0  0  0  0  0  0
    3.3130   -5.2273    0.0000 N   0  0  0  0  0  0  0  0  0  0  0  0
    3.7980   -5.8947    0.0000 C   0  0  0  0  0  0  0  0  0  0  0  0
    4.6184   -5.8085    0.0000 O   0  0  0  0  0  0  0  0  0  0  0  0
    3.4624   -6.6484    0.0000 C   0  0  0  0  0  0  0  0  0  0  0  0
    3.9473   -7.3158    0.0000 C   0  0  0  0  0  0  0  0  0  0  0  0
    3.6118   -8.0695    0.0000 C   0  0  0  0  0  0  0  0  0  0  0  0
    2.7913   -8.1557    0.0000 C   0  0  0  0  0  0  0  0  0  0  0  0
    2.3064   -7.4883    0.0000 C   0  0  0  0  0  0  0  0  0  0  0  0
    2.6419   -6.7346    0.0000 C   0  0  0  0  0  0  0  0  0  0  0  0
    2.3387   -3.8062    0.0000 N   0  0  0  0  0  0  0  0  0  0  0  0
    2.0837   -3.0215    0.0000 O   0  0  0  0  0  0  0  0  0  0  0  0
  1  2  1  0  0  0  0
  2  3  2  0  0  0  0
  3  4  1  0  0  0  0
  4  5  1  0  0  0  0
  5  6  1  0  0  0  0
  6  7  1  0  0  0  0
  7  8  2  0  0  0  0
  7  9  1  0  0  0  0
  9 10  2  0  0  0  0
 10 11  1  0  0  0  0
 11 12  2  0  0  0  0
 12 13  1  0  0  0  0
 13 14  2  0  0  0  0
  9 14  1  0  0  0  0
  4 15  2  0  0  0  0
 15 16  1  0  0  0  0
  2 16  1  0  0  0  0
M  END
>  <Catalog ID>
Z111589308

>  <PlateID>
1198308-R-SPFL-17

>  <Well>
B04

>  <MW (desalted)>
217.224

>  <ClogP>
0.450

>  <HBD>
1

>  <TPSA>
68.020

>  <RotBonds>
3

$$$$

            

 16 18  0  0  0  0            999 V2000
    1.4358   -2.7631    0.0000 O   0  0  0  0  0  0  0  0  0  0  0  0
    0.8838   -2.1500    0.0000 C   0  0  0  0  0  0  0  0  0  0  0  0
    0.0768   -2.3215    0.0000 N   0  0  0  0  0  0  0  0  0  0  0  0
   -0.2587   -3.0752    0.0000 C   0  0  0  0  0  0  0  0  0  0  0  0
   -1.0792   -2.9890    0.0000 C   0  0  0  0  0  0  0  0  0  0  0  0
   -1.2508   -2.1820    0.0000 C   0  0  0  0  0  0  0  0  0  0  0  0
   -0.5363   -1.7695    0.0000 C   0  0  0  0  0  0  0  0  0  0  0  0
    1.1387   -1.3654    0.0000 C   0  0  0  0  0  0  0  0  0  0  0  0
    0.6538   -0.6979    0.0000 C   0  0  0  0  0  0  0  0  0  0  0  0
    1.1387   -0.0305    0.0000 N   0  0  0  0  0  0  0  0  0  0  0  0
    1.9233   -0.2854    0.0000 N   0  0  0  0  0  0  0  0  0  0  0  0
    2.6378    0.1271    0.0000 C   0  0  0  0  0  0  0  0  0  0  0  0
    3.3523   -0.2854    0.0000 C   0  0  0  0  0  0  0  0  0  0  0  0
    3.3523   -1.1104    0.0000 C   0  0  0  0  0  0  0  0  0  0  0  0
    2.6378   -1.5229    0.0000 N   0  0  0  0  0  0  0  0  0  0  0  0
    1.9233   -1.1104    0.0000 C   0  0  0  0  0  0  0  0  0  0  0  0
  1  2  2  0  0  0  0
  2  3  1  0  0  0  0
  3  4  1  0  0  0  0
  4  5  1  0  0  0  0
  5  6  1  0  0  0  0
  6  7  1  0  0  0  0
  3  7  1  0  0  0  0
  2  8  1  0  0  0  0
  8  9  1  0  0  0  0
  9 10  2  0  0  0  0
 10 11  1  0  0  0  0
 11 12  1  0  0  0  0
 12 13  2  0  0  0  0
 13 14  1  0  0  0  0
 14 15  2  0  0  0  0
 15 16  1  0  0  0  0
  8 16  2  0  0  0  0
 11 16  1  0  0  0  0
M  END
>  <Catalog ID>
Z285639154

>  <PlateID>
1198308-R-SPFL-17

>  <Well>
B05

>  <MW (desalted)>
216.239

>  <ClogP>
-0.227

>  <HBD>
0

>  <TPSA>
50.500

>  <RotBonds>
1

$$$$

            

 11 12  0  0  0  0            999 V2000
    0.0000   -1.6500    0.0000 O   0  0  0  0  0  0  0  0  0  0  0  0
    0.7145   -1.2375    0.0000 C   0  0  0  0  0  0  0  0  0  0  0  0
    0.7145   -0.4125    0.0000 C   0  0  0  0  0  0  0  0  0  0  0  0
    1.4289    0.0000    0.0000 N   0  0  0  0  0  0  0  0  0  0  0  0
    2.1434   -0.4125    0.0000 C   0  0  0  0  0  0  0  0  0  0  0  0
    2.8579    0.0000    0.0000 C   0  0  0  0  0  0  0  0  0  0  0  0
    3.5724   -0.4125    0.0000 C   0  0  0  0  0  0  0  0  0  0  0  0
    3.5724   -1.2375    0.0000 C   0  0  0  0  0  0  0  0  0  0  0  0
    2.8579   -1.6500    0.0000 C   0  0  0  0  0  0  0  0  0  0  0  0
    2.1434   -1.2375    0.0000 C   0  0  0  0  0  0  0  0  0  0  0  0
    1.4289   -1.6500    0.0000 N   0  0  0  0  0  0  0  0  0  0  0  0
  1  2  1  0  0  0  0
  2  3  2  0  0  0  0
  3  4  1  0  0  0  0
  4  5  2  0  0  0  0
  5  6  1  0  0  0  0
  6  7  1  0  0  0  0
  7  8  1  0  0  0  0
  8  9  1  0  0  0  0
  9 10  1  0  0  0  0
  5 10  1  0  0  0  0
 10 11  2  0  0  0  0
  2 11  1  0  0  0  0
M  END
>  <Catalog ID>
Z2306625664

>  <PlateID>
1198308-R-SPFL-17

>  <Well>
B06

>  <MW (desalted)>
150.178

>  <ClogP>
1.881

>  <HBD>
1

>  <TPSA>
46.010

>  <RotBonds>
0

$$$$

            

 13 14  0  0  0  0            999 V2000
    1.3222    5.5902    0.0000 O   0  0  0  0  0  0  0  0  0  0  0  0
    1.3222    4.7652    0.0000 C   0  0  0  0  0  0  0  0  0  0  0  0
    2.0367    4.3527    0.0000 C   0  0  0  0  0  0  0  0  0  0  0  0
    2.7512    4.7652    0.0000 C   0  0  0  0  0  0  0  0  0  0  0  0
    3.4656    4.3527    0.0000 N   0  0  0  0  0  0  0  0  0  0  0  0
    3.4656    3.5277    0.0000 C   0  0  0  0  0  0  0  0  0  0  0  0
    2.7512    3.1152    0.0000 C   0  0  0  0  0  0  0  0  0  0  0  0
    2.0367    3.5277    0.0000 C   0  0  0  0  0  0  0  0  0  0  0  0
    2.7512    2.2902    0.0000 C   0  0  0  0  0  0  0  0  0  0  0  0
    3.4186    1.8053    0.0000 C   0  0  0  0  0  0  0  0  0  0  0  0
    3.1637    1.0206    0.0000 C   0  0  0  0  0  0  0  0  0  0  0  0
    2.3387    1.0206    0.0000 S   0  0  0  0  0  0  0  0  0  0  0  0
    2.0837    1.8053    0.0000 C   0  0  0  0  0  0  0  0  0  0  0  0
  1  2  1  0  0  0  0
  2  3  1  0  0  0  0
  3  4  2  0  0  0  0
  4  5  1  0  0  0  0
  5  6  2  0  0  0  0
  6  7  1  0  0  0  0
  7  8  2  0  0  0  0
  3  8  1  0  0  0  0
  7  9  1  0  0  0  0
  9 10  1  0  0  0  0
 10 11  2  0  0  0  0
 11 12  1  0  0  0  0
 12 13  1  0  0  0  0
  9 13  2  0  0  0  0
M  END
>  <Catalog ID>
Z1258977089

>  <PlateID>
1198308-R-SPFL-17

>  <Well>
B07

>  <MW (desalted)>
191.250

>  <ClogP>
1.630

>  <HBD>
1

>  <TPSA>
33.120

>  <RotBonds>
2

$$$$

            

 14 15  0  0  0  0            999 V2000
    3.2789    2.8875    0.0000 F   0  0  0  0  0  0  0  0  0  0  0  0
    3.2789    2.0625    0.0000 C   0  0  0  0  0  0  0  0  0  0  0  0
    2.4539    2.0625    0.0000 F   0  0  0  0  0  0  0  0  0  0  0  0
    4.1039    2.0625    0.0000 F   0  0  0  0  0  0  0  0  0  0  0  0
    3.2789    1.2375    0.0000 C   0  0  0  0  0  0  0  0  0  0  0  0
    3.9934    0.8250    0.0000 C   0  0  0  0  0  0  0  0  0  0  0  0
    3.9934    0.0000    0.0000 C   0  0  0  0  0  0  0  0  0  0  0  0
    4.7079   -0.4125    0.0000 O   0  0  0  0  0  0  0  0  0  0  0  0
    3.2789   -0.4125    0.0000 N   0  0  0  0  0  0  0  0  0  0  0  0
    2.5645    0.0000    0.0000 C   0  0  0  0  0  0  0  0  0  0  0  0
    1.7798   -0.2549    0.0000 N   0  0  0  0  0  0  0  0  0  0  0  0
    1.2949    0.4125    0.0000 N   0  0  0  0  0  0  0  0  0  0  0  0
    1.7798    1.0799    0.0000 C   0  0  0  0  0  0  0  0  0  0  0  0
    2.5645    0.8250    0.0000 C   0  0  0  0  0  0  0  0  0  0  0  0
  1  2  1  0  0  0  0
  2  3  1  0  0  0  0
  2  4  1  0  0  0  0
  2  5  1  0  0  0  0
  5  6  2  0  0  0  0
  6  7  1  0  0  0  0
  7  8  2  0  0  0  0
  7  9  1  0  0  0  0
  9 10  1  0  0  0  0
 10 11  1  0  0  0  0
 11 12  1  0  0  0  0
 12 13  2  0  0  0  0
 13 14  1  0  0  0  0
  5 14  1  0  0  0  0
 10 14  2  0  0  0  0
M  END
>  <Catalog ID>
Z1983079687

>  <PlateID>
1198308-R-SPFL-17

>  <Well>
B08

>  <MW (desalted)>
203.121

>  <ClogP>
0.691

>  <HBD>
2

>  <TPSA>
57.780

>  <RotBonds>
1

$$$$

            

 15 16  0  0  0  0            999 V2000
    0.7145   -3.7125    0.0000 O   0  0  0  0  0  0  0  0  0  0  0  0
    0.7145   -2.8875    0.0000 C   0  0  0  0  0  0  0  0  0  0  0  0
    0.0000   -2.4750    0.0000 O   0  0  0  0  0  0  0  0  0  0  0  0
    1.4289   -2.4750    0.0000 C   0  0  0  0  0  0  0  0  0  0  0  0
    1.4289   -1.6500    0.0000 N   0  0  0  0  0  0  0  0  0  0  0  0
    0.7145   -1.2375    0.0000 C   0  0  0  0  0  0  0  0  0  0  0  0
    0.0000   -1.6500    0.0000 O   0  0  0  0  0  0  0  0  0  0  0  0
    0.7145   -0.4125    0.0000 C   0  0  0  0  0  0  0  0  0  0  0  0
    1.4289    0.0000    0.0000 S   0  0  0  0  0  0  0  0  0  0  0  0
    2.1434   -0.4125    0.0000 C   0  0  0  0  0  0  0  0  0  0  0  0
    2.8579    0.0000    0.0000 C   0  0  0  0  0  0  0  0  0  0  0  0
    3.5724   -0.4125    0.0000 C   0  0  0  0  0  0  0  0  0  0  0  0
    3.5724   -1.2375    0.0000 C   0  0  0  0  0  0  0  0  0  0  0  0
    2.8579   -1.6500    0.0000 C   0  0  0  0  0  0  0  0  0  0  0  0
    2.1434   -1.2375    0.0000 C   0  0  0  0  0  0  0  0  0  0  0  0
  1  2  1  0  0  0  0
  2  3  2  0  0  0  0
  2  4  1  0  0  0  0
  4  5  1  0  0  0  0
  5  6  1  0  0  0  0
  6  7  2  0  0  0  0
  6  8  1  0  0  0  0
  8  9  1  0  0  0  0
  9 10  1  0  0  0  0
 10 11  2  0  0  0  0
 11 12  1  0  0  0  0
 12 13  2  0  0  0  0
 13 14  1  0  0  0  0
 14 15  2  0  0  0  0
  5 15  1  0  0  0  0
 10 15  1  0  0  0  0
M  END
>  <Catalog ID>
Z89270869

>  <PlateID>
1198308-R-SPFL-17

>  <Well>
B09

>  <MW (desalted)>
223.248

>  <ClogP>
1.313

>  <HBD>
1

>  <TPSA>
57.610

>  <RotBonds>
2

$$$$

            

 16 18  0  0  0  0            999 V2000
    5.0645    1.4672    0.0000 O   0  0  0  0  0  0  0  0  0  0  0  0
    4.2575    1.6387    0.0000 C   0  0  0  0  0  0  0  0  0  0  0  0
    4.0025    2.4233    0.0000 O   0  0  0  0  0  0  0  0  0  0  0  0
    3.7054    1.0256    0.0000 C   0  0  0  0  0  0  0  0  0  0  0  0
    2.8985    1.1971    0.0000 C   0  0  0  0  0  0  0  0  0  0  0  0
    2.3464    0.5840    0.0000 C   0  0  0  0  0  0  0  0  0  0  0  0
    2.6014   -0.2006    0.0000 C   0  0  0  0  0  0  0  0  0  0  0  0
    1.9339   -0.6855    0.0000 C   0  0  0  0  0  0  0  0  0  0  0  0
    1.2665   -0.2006    0.0000 C   0  0  0  0  0  0  0  0  0  0  0  0
    0.4595   -0.3721    0.0000 C   0  0  0  0  0  0  0  0  0  0  0  0
   -0.0925    0.2410    0.0000 C   0  0  0  0  0  0  0  0  0  0  0  0
    0.1624    1.0256    0.0000 C   0  0  0  0  0  0  0  0  0  0  0  0
    0.9694    1.1971    0.0000 C   0  0  0  0  0  0  0  0  0  0  0  0
    1.5214    0.5840    0.0000 C   0  0  0  0  0  0  0  0  0  0  0  0
    3.4084   -0.3721    0.0000 C   0  0  0  0  0  0  0  0  0  0  0  0
    3.9604    0.2410    0.0000 N   0  0  0  0  0  0  0  0  0  0  0  0
  1  2  1  0  0  0  0
  2  3  2  0  0  0  0
  2  4  1  0  0  0  0
  4  5  2  0  0  0  0
  5  6  1  0  0  0  0
  6  7  2  0  0  0  0
  7  8  1  0  0  0  0
  8  9  1  0  0  0  0
  9 10  2  0  0  0  0
 10 11  1  0  0  0  0
 11 12  2  0  0  0  0
 12 13  1  0  0  0  0
 13 14  2  0  0  0  0
  9 14  1  0  0  0  0
  6 14  1  0  0  0  0
  7 15  1  0  0  0  0
 15 16  2  0  0  0  0
  4 16  1  0  0  0  0
M  END
>  <Catalog ID>
Z1508968930

>  <PlateID>
1198308-R-SPFL-17

>  <Well>
B10

>  <MW (desalted)>
211.216

>  <ClogP>
2.932

>  <HBD>
1

>  <TPSA>
50.190

>  <RotBonds>
1

$$$$

            

 16 18  0  0  0  0            999 V2000
   -0.1712   -0.6979    0.0000 O   0  0  0  0  0  0  0  0  0  0  0  0
    0.6538   -0.6979    0.0000 C   0  0  0  0  0  0  0  0  0  0  0  0
    1.1387   -0.0305    0.0000 N   0  0  0  0  0  0  0  0  0  0  0  0
    1.9233   -0.2854    0.0000 C   0  0  0  0  0  0  0  0  0  0  0  0
    2.6378    0.1271    0.0000 C   0  0  0  0  0  0  0  0  0  0  0  0
    3.3523   -0.2854    0.0000 C   0  0  0  0  0  0  0  0  0  0  0  0
    3.3523   -1.1104    0.0000 C   0  0  0  0  0  0  0  0  0  0  0  0
    2.6378   -1.5229    0.0000 C   0  0  0  0  0  0  0  0  0  0  0  0
    1.9233   -1.1104    0.0000 C   0  0  0  0  0  0  0  0  0  0  0  0
    1.1387   -1.3654    0.0000 N   0  0  0  0  0  0  0  0  0  0  0  0
    0.8838   -2.1500    0.0000 C   0  0  0  0  0  0  0  0  0  0  0  0
    1.4358   -2.7631    0.0000 C   0  0  0  0  0  0  0  0  0  0  0  0
    1.1809   -3.5477    0.0000 C   0  0  0  0  0  0  0  0  0  0  0  0
    0.3739   -3.7192    0.0000 N   0  0  0  0  0  0  0  0  0  0  0  0
   -0.1781   -3.1062    0.0000 C   0  0  0  0  0  0  0  0  0  0  0  0
    0.0768   -2.3215    0.0000 C   0  0  0  0  0  0  0  0  0  0  0  0
  1  2  2  0  0  0  0
  2  3  1  0  0  0  0
  3  4  1  0  0  0  0
  4  5  2  0  0  0  0
  5  6  1  0  0  0  0
  6  7  2  0  0  0  0
  7  8  1  0  0  0  0
  8  9  2  0  0  0  0
  4  9  1  0  0  0  0
  9 10  1  0  0  0  0
  2 10  1  0  0  0  0
 10 11  1  0  0  0  0
 11 12  2  0  0  0  0
 12 13  1  0  0  0  0
 13 14  2  0  0  0  0
 14 15  1  0  0  0  0
 15 16  2  0  0  0  0
 11 16  1  0  0  0  0
M  END
>  <Catalog ID>
Z1509326738

>  <PlateID>
1198308-R-SPFL-17

>  <Well>
B11

>  <MW (desalted)>
211.219

>  <ClogP>
2.386

>  <HBD>
1

>  <TPSA>
45.230

>  <RotBonds>
1

$$$$

            

 12 13  0  0  0  0            999 V2000
    0.7145   -0.4125    0.0000 O   0  0  0  0  0  0  0  0  0  0  0  0
    0.7145   -1.2375    0.0000 C   0  0  0  0  0  0  0  0  0  0  0  0
    1.3819   -1.7224    0.0000 N   0  0  0  0  0  0  0  0  0  0  0  0
    1.1270   -2.5070    0.0000 N   0  0  0  0  0  0  0  0  0  0  0  0
    0.3020   -2.5070    0.0000 C   0  0  0  0  0  0  0  0  0  0  0  0
    0.0470   -1.7224    0.0000 O   0  0  0  0  0  0  0  0  0  0  0  0
   -0.1830   -3.1745    0.0000 C   0  0  0  0  0  0  0  0  0  0  0  0
    0.1526   -3.9282    0.0000 C   0  0  0  0  0  0  0  0  0  0  0  0
   -0.3323   -4.5956    0.0000 C   0  0  0  0  0  0  0  0  0  0  0  0
   -1.1528   -4.5094    0.0000 C   0  0  0  0  0  0  0  0  0  0  0  0
   -1.4884   -3.7557    0.0000 C   0  0  0  0  0  0  0  0  0  0  0  0
   -1.0034   -3.0882    0.0000 C   0  0  0  0  0  0  0  0  0  0  0  0
  1  2  1  0  0  0  0
  2  3  2  0  0  0  0
  3  4  1  0  0  0  0
  4  5  2  0  0  0  0
  5  6  1  0  0  0  0
  2  6  1  0  0  0  0
  5  7  1  0  0  0  0
  7  8  2  0  0  0  0
  8  9  1  0  0  0  0
  9 10  2  0  0  0  0
 10 11  1  0  0  0  0
 11 12  2  0  0  0  0
  7 12  1  0  0  0  0
M  END
>  <Catalog ID>
Z57663553

>  <PlateID>
1198308-R-SPFL-17

>  <Well>
C02

>  <MW (desalted)>
162.145

>  <ClogP>
1.456

>  <HBD>
1

>  <TPSA>
59.150

>  <RotBonds>
1

$$$$

            

 16 17  0  0  0  0            999 V2000
    4.7812    4.4104    0.0000 C   0  0  0  0  0  0  0  0  0  0  0  0
    4.7812    3.5854    0.0000 C   0  0  0  0  0  0  0  0  0  0  0  0
    4.0668    3.1729    0.0000 C   0  0  0  0  0  0  0  0  0  0  0  0
    3.3523    3.5854    0.0000 O   0  0  0  0  0  0  0  0  0  0  0  0
    4.0668    2.3479    0.0000 N   0  0  0  0  0  0  0  0  0  0  0  0
    3.3523    1.9354    0.0000 C   0  0  0  0  0  0  0  0  0  0  0  0
    3.3523    1.1104    0.0000 C   0  0  0  0  0  0  0  0  0  0  0  0
    2.6378    0.6979    0.0000 N   0  0  0  0  0  0  0  0  0  0  0  0
    1.9233    1.1104    0.0000 C   0  0  0  0  0  0  0  0  0  0  0  0
    1.1387    0.8555    0.0000 N   0  0  0  0  0  0  0  0  0  0  0  0
    0.8838    0.0709    0.0000 C   0  0  0  0  0  0  0  0  0  0  0  0
    0.6538    1.5229    0.0000 N   0  0  0  0  0  0  0  0  0  0  0  0
    1.1387    2.1904    0.0000 C   0  0  0  0  0  0  0  0  0  0  0  0
    0.8838    2.9750    0.0000 C   0  0  0  0  0  0  0  0  0  0  0  0
    1.9233    1.9354    0.0000 C   0  0  0  0  0  0  0  0  0  0  0  0
    2.6378    2.3479    0.0000 C   0  0  0  0  0  0  0  0  0  0  0  0
  1  2  1  0  0  0  0
  2  3  1  0  0  0  0
  3  4  2  0  0  0  0
  3  5  1  0  0  0  0
  5  6  1  0  0  0  0
  6  7  2  0  0  0  0
  7  8  1  0  0  0  0
  8  9  2  0  0  0  0
  9 10  1  0  0  0  0
 10 11  1  0  0  0  0
 10 12  1  0  0  0  0
 12 13  2  0  0  0  0
 13 14  1  0  0  0  0
 13 15  1  0  0  0  0
  9 15  1  0  0  0  0
 15 16  2  0  0  0  0
  6 16  1  0  0  0  0
M  END
>  <Catalog ID>
Z239533192

>  <PlateID>
1198308-R-SPFL-17

>  <Well>
C03

>  <MW (desalted)>
218.255

>  <ClogP>
1.178

>  <HBD>
1

>  <TPSA>
59.810

>  <RotBonds>
2

$$$$

            

 15 16  0  0  0  0            999 V2000
    0.0000   -1.6500    0.0000 O   0  0  0  0  0  0  0  0  0  0  0  0
    0.7145   -1.2375    0.0000 C   0  0  0  0  0  0  0  0  0  0  0  0
    1.4289   -1.6500    0.0000 N   0  0  0  0  0  0  0  0  0  0  0  0
    1.4289   -2.4750    0.0000 C   0  0  0  0  0  0  0  0  0  0  0  0
    2.1434   -2.8875    0.0000 C   0  0  0  0  0  0  0  0  0  0  0  0
    2.1434   -3.7125    0.0000 N   0  0  0  0  0  0  0  0  0  0  0  0
    1.4289   -4.1250    0.0000 C   0  0  0  0  0  0  0  0  0  0  0  0
    0.7145   -3.7125    0.0000 C   0  0  0  0  0  0  0  0  0  0  0  0
    0.7145   -2.8875    0.0000 N   0  0  0  0  0  0  0  0  0  0  0  0
    0.7145   -0.4125    0.0000 C   0  0  0  0  0  0  0  0  0  0  0  0
    0.0000    0.0000    0.0000 C   0  0  0  0  0  0  0  0  0  0  0  0
    0.0000    0.8250    0.0000 C   0  0  0  0  0  0  0  0  0  0  0  0
    0.7145    1.2375    0.0000 C   0  0  0  0  0  0  0  0  0  0  0  0
    1.4289    0.8250    0.0000 C   0  0  0  0  0  0  0  0  0  0  0  0
    1.4289    0.0000    0.0000 C   0  0  0  0  0  0  0  0  0  0  0  0
  1  2  2  0  0  0  0
  2  3  1  0  0  0  0
  3  4  1  0  0  0  0
  4  5  2  0  0  0  0
  5  6  1  0  0  0  0
  6  7  2  0  0  0  0
  7  8  1  0  0  0  0
  8  9  2  0  0  0  0
  4  9  1  0  0  0  0
  2 10  1  0  0  0  0
 10 11  2  0  0  0  0
 11 12  1  0  0  0  0
 12 13  2  0  0  0  0
 13 14  1  0  0  0  0
 14 15  2  0  0  0  0
 10 15  1  0  0  0  0
M  END
>  <Catalog ID>
Z223197060

>  <PlateID>
1198308-R-SPFL-17

>  <Well>
C04

>  <MW (desalted)>
199.209

>  <ClogP>
1.314

>  <HBD>
1

>  <TPSA>
54.880

>  <RotBonds>
2

$$$$

            

 16 17  0  0  0  0            999 V2000
    0.7145   -1.2375    0.0000 C   0  0  0  0  0  0  0  0  0  0  0  0
    0.7145   -0.4125    0.0000 C   0  0  0  0  0  0  0  0  0  0  0  0
    0.0000    0.0000    0.0000 C   0  0  0  0  0  0  0  0  0  0  0  0
    0.0000    0.8250    0.0000 C   0  0  0  0  0  0  0  0  0  0  0  0
    0.7145    1.2375    0.0000 C   0  0  0  0  0  0  0  0  0  0  0  0
    1.4289    0.8250    0.0000 C   0  0  0  0  0  0  0  0  0  0  0  0
    1.4289    0.0000    0.0000 C   0  0  0  0  0  0  0  0  0  0  0  0
    2.1434   -0.4125    0.0000 N   0  0  0  0  0  0  0  0  0  0  0  0
    2.1434   -1.2375    0.0000 C   0  0  0  0  0  0  0  0  0  0  0  0
    1.4289   -1.6500    0.0000 O   0  0  0  0  0  0  0  0  0  0  0  0
    2.8579   -1.6500    0.0000 C   0  0  0  0  0  0  0  0  0  0  0  0
    2.8579   -2.4750    0.0000 N   0  0  0  0  0  0  0  0  0  0  0  0
    3.5253   -2.9599    0.0000 C   0  0  0  0  0  0  0  0  0  0  0  0
    3.2704   -3.7445    0.0000 C   0  0  0  0  0  0  0  0  0  0  0  0
    2.4454   -3.7445    0.0000 C   0  0  0  0  0  0  0  0  0  0  0  0
    2.1904   -2.9599    0.0000 N   0  0  0  0  0  0  0  0  0  0  0  0
  1  2  1  0  0  0  0
  2  3  2  0  0  0  0
  3  4  1  0  0  0  0
  4  5  2  0  0  0  0
  5  6  1  0  0  0  0
  6  7  2  0  0  0  0
  2  7  1  0  0  0  0
  7  8  1  0  0  0  0
  8  9  1  0  0  0  0
  9 10  2  0  0  0  0
  9 11  1  0  0  0  0
 11 12  1  0  0  0  0
 12 13  1  0  0  0  0
 13 14  2  0  0  0  0
 14 15  1  0  0  0  0
 15 16  2  0  0  0  0
 12 16  1  0  0  0  0
M  END
>  <Catalog ID>
Z169544810

>  <PlateID>
1198308-R-SPFL-17

>  <Well>
C05

>  <MW (desalted)>
215.251

>  <ClogP>
1.068

>  <HBD>
1

>  <TPSA>
46.920

>  <RotBonds>
3

$$$$

            

 12 13  0  0  0  0            999 V2000
    1.2564   -0.1802    0.0000 C   0  0  0  0  0  0  0  0  0  0  0  0
    1.2564   -1.0052    0.0000 C   0  0  0  0  0  0  0  0  0  0  0  0
    1.9239   -1.4901    0.0000 N   0  0  0  0  0  0  0  0  0  0  0  0
    1.6689   -2.2748    0.0000 C   0  0  0  0  0  0  0  0  0  0  0  0
    0.8439   -2.2748    0.0000 C   0  0  0  0  0  0  0  0  0  0  0  0
    0.5890   -1.4901    0.0000 S   0  0  0  0  0  0  0  0  0  0  0  0
    2.1538   -2.9422    0.0000 C   0  0  0  0  0  0  0  0  0  0  0  0
    2.9788   -2.9422    0.0000 C   0  0  0  0  0  0  0  0  0  0  0  0
    3.2338   -3.7268    0.0000 N   0  0  0  0  0  0  0  0  0  0  0  0
    2.5663   -4.2117    0.0000 O   0  0  0  0  0  0  0  0  0  0  0  0
    1.8989   -3.7268    0.0000 C   0  0  0  0  0  0  0  0  0  0  0  0
    1.1143   -3.9818    0.0000 C   0  0  0  0  0  0  0  0  0  0  0  0
  1  2  1  0  0  0  0
  2  3  2  0  0  0  0
  3  4  1  0  0  0  0
  4  5  2  0  0  0  0
  5  6  1  0  0  0  0
  2  6  1  0  0  0  0
  4  7  1  0  0  0  0
  7  8  1  0  0  0  0
  8  9  2  0  0  0  0
  9 10  1  0  0  0  0
 10 11  1  0  0  0  0
  7 11  2  0  0  0  0
 11 12  1  0  0  0  0
M  END
>  <Catalog ID>
Z1198159373

>  <PlateID>
1198308-R-SPFL-17

>  <Well>
C06

>  <MW (desalted)>
180.227

>  <ClogP>
1.413

>  <HBD>
0

>  <TPSA>
38.920

>  <RotBonds>
1

$$$$

            

 14 13  0  0  0  0            999 V2000
    0.0000    0.0000    0.0000 Cl  0  0  0  0  0  0  0  0  0  0  0  0
    2.0036    0.0000    0.0000 Cl  0  0  0  0  0  0  0  0  0  0  0  0
   -1.2503   -4.5375    0.0000 N   0  0  0  0  0  0  0  0  0  0  0  0
   -0.5359   -4.1250    0.0000 C   0  0  0  0  0  0  0  0  0  0  0  0
   -0.5359   -3.3000    0.0000 C   0  0  0  0  0  0  0  0  0  0  0  0
   -1.2503   -2.8875    0.0000 C   0  0  0  0  0  0  0  0  0  0  0  0
   -1.2503   -2.0625    0.0000 C   0  0  0  0  0  0  0  0  0  0  0  0
   -0.5359   -1.6500    0.0000 C   0  0  0  0  0  0  0  0  0  0  0  0
    0.1786   -2.0625    0.0000 C   0  0  0  0  0  0  0  0  0  0  0  0
    0.8931   -1.6500    0.0000 O   0  0  0  0  0  0  0  0  0  0  0  0
    1.6076   -2.0625    0.0000 C   0  0  0  0  0  0  0  0  0  0  0  0
    1.6076   -2.8875    0.0000 C   0  0  0  0  0  0  0  0  0  0  0  0
    0.8931   -3.3000    0.0000 O   0  0  0  0  0  0  0  0  0  0  0  0
    0.1786   -2.8875    0.0000 C   0  0  0  0  0  0  0  0  0  0  0  0
  3  4  1  0  0  0  0
  4  5  1  0  0  0  0
  5  6  2  0  0  0  0
  6  7  1  0  0  0  0
  7  8  2  0  0  0  0
  8  9  1  0  0  0  0
  9 10  1  0  0  0  0
 10 11  1  0  0  0  0
 11 12  1  0  0  0  0
 12 13  1  0  0  0  0
 13 14  1  0  0  0  0
  5 14  1  0  0  0  0
  9 14  2  0  0  0  0
M  END
>  <Catalog ID>
Z1262398456

>  <PlateID>
1198308-R-SPFL-17

>  <Well>
C07

>  <MW (desalted)>
165.189

>  <ClogP>
1.018

>  <HBD>
1

>  <TPSA>
44.480

>  <RotBonds>
1

$$$$

            

 14 15  0  0  0  0            999 V2000
    0.7145   -1.2375    0.0000 C   0  0  0  0  0  0  0  0  0  0  0  0
    1.4289   -1.6500    0.0000 N   0  0  0  0  0  0  0  0  0  0  0  0
    1.4289   -2.4750    0.0000 C   0  0  0  0  0  0  0  0  0  0  0  0
    2.1434   -2.8875    0.0000 C   0  0  0  0  0  0  0  0  0  0  0  0
    2.1434   -3.7125    0.0000 C   0  0  0  0  0  0  0  0  0  0  0  0
    1.4289   -4.1250    0.0000 C   0  0  0  0  0  0  0  0  0  0  0  0
    0.7145   -3.7125    0.0000 C   0  0  0  0  0  0  0  0  0  0  0  0
    0.7145   -2.8875    0.0000 C   0  0  0  0  0  0  0  0  0  0  0  0
    0.7145   -0.4125    0.0000 C   0  0  0  0  0  0  0  0  0  0  0  0
    0.0000    0.0000    0.0000 C   0  0  0  0  0  0  0  0  0  0  0  0
    0.0000    0.8250    0.0000 N   0  0  0  0  0  0  0  0  0  0  0  0
    0.7145    1.2375    0.0000 C   0  0  0  0  0  0  0  0  0  0  0  0
    1.4289    0.8250    0.0000 N   0  0  0  0  0  0  0  0  0  0  0  0
    1.4289    0.0000    0.0000 C   0  0  0  0  0  0  0  0  0  0  0  0
  1  2  1  0  0  0  0
  2  3  1  0  0  0  0
  3  4  2  0  0  0  0
  4  5  1  0  0  0  0
  5  6  2  0  0  0  0
  6  7  1  0  0  0  0
  7  8  2  0  0  0  0
  3  8  1  0  0  0  0
  1  9  1  0  0  0  0
  9 10  2  0  0  0  0
 10 11  1  0  0  0  0
 11 12  2  0  0  0  0
 12 13  1  0  0  0  0
 13 14  2  0  0  0  0
  9 14  1  0  0  0  0
M  END
>  <Catalog ID>
Z1013455882

>  <PlateID>
1198308-R-SPFL-17

>  <Well>
C08

>  <MW (desalted)>
185.225

>  <ClogP>
0.635

>  <HBD>
1

>  <TPSA>
37.810

>  <RotBonds>
3

$$$$

            

 16 15  0  0  0  0            999 V2000
    0.0000    0.0000    0.0000 Cl  0  0  0  0  0  0  0  0  0  0  0  0
    2.0036    0.0000    0.0000 Cl  0  0  0  0  0  0  0  0  0  0  0  0
   -2.5006   -2.0625    0.0000 N   0  0  0  0  0  0  0  0  0  0  0  0
   -1.7862   -1.6500    0.0000 C   0  0  0  0  0  0  0  0  0  0  0  0
   -1.0717   -2.0625    0.0000 C   0  0  0  0  0  0  0  0  0  0  0  0
   -0.3572   -1.6500    0.0000 C   0  0  0  0  0  0  0  0  0  0  0  0
    0.3572   -2.0625    0.0000 C   0  0  0  0  0  0  0  0  0  0  0  0
    0.3572   -2.8875    0.0000 C   0  0  0  0  0  0  0  0  0  0  0  0
    1.0717   -3.3000    0.0000 C   0  0  0  0  0  0  0  0  0  0  0  0
    1.0717   -4.1250    0.0000 N   0  0  0  0  0  0  0  0  0  0  0  0
    1.7391   -4.6099    0.0000 C   0  0  0  0  0  0  0  0  0  0  0  0
    1.4842   -5.3945    0.0000 N   0  0  0  0  0  0  0  0  0  0  0  0
    0.6592   -5.3945    0.0000 C   0  0  0  0  0  0  0  0  0  0  0  0
    0.4043   -4.6099    0.0000 N   0  0  0  0  0  0  0  0  0  0  0  0
   -0.3572   -3.3000    0.0000 C   0  0  0  0  0  0  0  0  0  0  0  0
   -1.0717   -2.8875    0.0000 C   0  0  0  0  0  0  0  0  0  0  0  0
  3  4  1  0  0  0  0
  4  5  1  0  0  0  0
  5  6  2  0  0  0  0
  6  7  1  0  0  0  0
  7  8  2  0  0  0  0
  8  9  1  0  0  0  0
  9 10  1  0  0  0  0
 10 11  1  0  0  0  0
 11 12  2  0  0  0  0
 12 13  1  0  0  0  0
 13 14  2  0  0  0  0
 10 14  1  0  0  0  0
  8 15  1  0  0  0  0
 15 16  2  0  0  0  0
  5 16  1  0  0  0  0
M  END
>  <Catalog ID>
Z188745070

>  <PlateID>
1198308-R-SPFL-17

>  <Well>
C09

>  <MW (desalted)>
188.229

>  <ClogP>
0.167

>  <HBD>
1

>  <TPSA>
56.730

>  <RotBonds>
3

$$$$

            

 13 13  0  0  0  0            999 V2000
    0.7145    2.0625    0.0000 C   0  0  0  0  0  0  0  0  0  0  0  0
    0.7145    1.2375    0.0000 C   0  0  0  0  0  0  0  0  0  0  0  0
    1.4289    0.8250    0.0000 C   0  0  0  0  0  0  0  0  0  0  0  0
    1.4289   -0.0000    0.0000 C   0  0  0  0  0  0  0  0  0  0  0  0
    0.7145   -0.4125    0.0000 C   0  0  0  0  0  0  0  0  0  0  0  0
    0.7145   -1.2375    0.0000 C   0  0  0  0  0  0  0  0  0  0  0  0
   -0.0000   -1.6500    0.0000 C   0  0  0  0  0  0  0  0  0  0  0  0
   -0.0000   -2.4750    0.0000 C   0  0  0  0  0  0  0  0  0  0  0  0
    0.7145   -2.8875    0.0000 O   0  0  0  0  0  0  0  0  0  0  0  0
   -0.7145   -2.8875    0.0000 O   0  0  0  0  0  0  0  0  0  0  0  0
    0.0000    0.0000    0.0000 C   0  0  0  0  0  0  0  0  0  0  0  0
    0.0000    0.8250    0.0000 C   0  0  0  0  0  0  0  0  0  0  0  0
   -0.7145    1.2375    0.0000 C   0  0  0  0  0  0  0  0  0  0  0  0
  1  2  1  0  0  0  0
  2  3  2  0  0  0  0
  3  4  1  0  0  0  0
  4  5  2  0  0  0  0
  5  6  1  0  0  0  0
  6  7  2  0  0  0  0
  7  8  1  0  0  0  0
  8  9  2  0  0  0  0
  8 10  1  0  0  0  0
  5 11  1  0  0  0  0
 11 12  2  0  0  0  0
  2 12  1  0  0  0  0
 12 13  1  0  0  0  0
M  END
>  <Catalog ID>
Z2312273984

>  <PlateID>
1198308-R-SPFL-17

>  <Well>
C10

>  <MW (desalted)>
176.212

>  <ClogP>
3.187

>  <HBD>
1

>  <TPSA>
37.300

>  <RotBonds>
2

$$$$

            

  9 10  0  0  0  0            999 V2000
    1.1387   -1.3654    0.0000 C   0  0  0  0  0  0  0  0  0  0  0  0
    0.6538   -0.6979    0.0000 N   0  0  0  0  0  0  0  0  0  0  0  0
    1.1387   -0.0305    0.0000 N   0  0  0  0  0  0  0  0  0  0  0  0
    1.9233   -0.2854    0.0000 C   0  0  0  0  0  0  0  0  0  0  0  0
    2.6378    0.1271    0.0000 C   0  0  0  0  0  0  0  0  0  0  0  0
    3.3523   -0.2854    0.0000 C   0  0  0  0  0  0  0  0  0  0  0  0
    3.3523   -1.1104    0.0000 N   0  0  0  0  0  0  0  0  0  0  0  0
    2.6378   -1.5229    0.0000 C   0  0  0  0  0  0  0  0  0  0  0  0
    1.9233   -1.1104    0.0000 C   0  0  0  0  0  0  0  0  0  0  0  0
  1  2  2  0  0  0  0
  2  3  1  0  0  0  0
  3  4  2  0  0  0  0
  4  5  1  0  0  0  0
  5  6  2  0  0  0  0
  6  7  1  0  0  0  0
  7  8  1  0  0  0  0
  8  9  2  0  0  0  0
  1  9  1  0  0  0  0
  4  9  1  0  0  0  0
M  END
>  <Catalog ID>
Z3292140854

>  <PlateID>
1198308-R-SPFL-17

>  <Well>
C11

>  <MW (desalted)>
119.124

>  <ClogP>
0.218

>  <HBD>
1

>  <TPSA>
41.570

>  <RotBonds>
0

$$$$

            

 15 16  0  0  0  0            999 V2000
    1.3222    5.5902    0.0000 C   0  0  0  0  0  0  0  0  0  0  0  0
    1.3222    4.7652    0.0000 O   0  0  0  0  0  0  0  0  0  0  0  0
    2.0367    4.3527    0.0000 C   0  0  0  0  0  0  0  0  0  0  0  0
    2.7512    4.7652    0.0000 C   0  0  0  0  0  0  0  0  0  0  0  0
    3.4656    4.3527    0.0000 C   0  0  0  0  0  0  0  0  0  0  0  0
    3.4656    3.5277    0.0000 C   0  0  0  0  0  0  0  0  0  0  0  0
    2.7512    3.1152    0.0000 C   0  0  0  0  0  0  0  0  0  0  0  0
    2.0367    3.5277    0.0000 C   0  0  0  0  0  0  0  0  0  0  0  0
    2.7512    2.2902    0.0000 C   0  0  0  0  0  0  0  0  0  0  0  0
    3.4186    1.8053    0.0000 N   0  0  0  0  0  0  0  0  0  0  0  0
    3.1637    1.0206    0.0000 C   0  0  0  0  0  0  0  0  0  0  0  0
    3.6486    0.3532    0.0000 C   0  0  0  0  0  0  0  0  0  0  0  0
    4.4691    0.4394    0.0000 O   0  0  0  0  0  0  0  0  0  0  0  0
    2.3387    1.0206    0.0000 C   0  0  0  0  0  0  0  0  0  0  0  0
    2.0837    1.8053    0.0000 S   0  0  0  0  0  0  0  0  0  0  0  0
  1  2  1  0  0  0  0
  2  3  1  0  0  0  0
  3  4  2  0  0  0  0
  4  5  1  0  0  0  0
  5  6  2  0  0  0  0
  6  7  1  0  0  0  0
  7  8  2  0  0  0  0
  3  8  1  0  0  0  0
  7  9  1  0  0  0  0
  9 10  2  0  0  0  0
 10 11  1  0  0  0  0
 11 12  1  0  0  0  0
 12 13  1  0  0  0  0
 11 14  2  0  0  0  0
 14 15  1  0  0  0  0
  9 15  1  0  0  0  0
M  END
>  <Catalog ID>
Z235449228

>  <PlateID>
1198308-R-SPFL-17

>  <Well>
D02

>  <MW (desalted)>
221.276

>  <ClogP>
1.566

>  <HBD>
1

>  <TPSA>
42.350

>  <RotBonds>
3

$$$$

            

 13 14  0  0  0  0            999 V2000
   -0.1781   -3.1062    0.0000 N   0  0  0  0  0  0  0  0  0  0  0  0
    0.0768   -2.3215    0.0000 C   0  0  0  0  0  0  0  0  0  0  0  0
   -0.4752   -1.7084    0.0000 O   0  0  0  0  0  0  0  0  0  0  0  0
    0.8838   -2.1500    0.0000 C   0  0  0  0  0  0  0  0  0  0  0  0
    1.1387   -1.3654    0.0000 N   0  0  0  0  0  0  0  0  0  0  0  0
    0.6538   -0.6979    0.0000 N   0  0  0  0  0  0  0  0  0  0  0  0
    1.1387   -0.0305    0.0000 N   0  0  0  0  0  0  0  0  0  0  0  0
    1.9233   -0.2854    0.0000 C   0  0  0  0  0  0  0  0  0  0  0  0
    2.6378    0.1271    0.0000 C   0  0  0  0  0  0  0  0  0  0  0  0
    3.3523   -0.2854    0.0000 C   0  0  0  0  0  0  0  0  0  0  0  0
    3.3523   -1.1104    0.0000 C   0  0  0  0  0  0  0  0  0  0  0  0
    2.6378   -1.5229    0.0000 C   0  0  0  0  0  0  0  0  0  0  0  0
    1.9233   -1.1104    0.0000 C   0  0  0  0  0  0  0  0  0  0  0  0
  1  2  1  0  0  0  0
  2  3  2  0  0  0  0
  2  4  1  0  0  0  0
  4  5  1  0  0  0  0
  5  6  1  0  0  0  0
  6  7  2  0  0  0  0
  7  8  1  0  0  0  0
  8  9  2  0  0  0  0
  9 10  1  0  0  0  0
 10 11  2  0  0  0  0
 11 12  1  0  0  0  0
 12 13  2  0  0  0  0
  5 13  1  0  0  0  0
  8 13  1  0  0  0  0
M  END
>  <Catalog ID>
Z56774274

>  <PlateID>
1198308-R-SPFL-17

>  <Well>
D03

>  <MW (desalted)>
176.175

>  <ClogP>
0.042

>  <HBD>
1

>  <TPSA>
73.800

>  <RotBonds>
2

$$$$

            

 16 17  0  0  0  0            999 V2000
    0.0000   -1.6500    0.0000 C   0  0  0  0  0  0  0  0  0  0  0  0
    0.7145   -1.2375    0.0000 C   0  0  0  0  0  0  0  0  0  0  0  0
    0.7145   -0.4125    0.0000 C   0  0  0  0  0  0  0  0  0  0  0  0
    1.4289    0.0000    0.0000 C   0  0  0  0  0  0  0  0  0  0  0  0
    1.4289    0.8250    0.0000 O   0  0  0  0  0  0  0  0  0  0  0  0
    0.7145    1.2375    0.0000 C   0  0  0  0  0  0  0  0  0  0  0  0
    0.7145    2.0625    0.0000 C   0  0  0  0  0  0  0  0  0  0  0  0
    0.0000    2.4750    0.0000 O   0  0  0  0  0  0  0  0  0  0  0  0
    2.1434   -0.4125    0.0000 C   0  0  0  0  0  0  0  0  0  0  0  0
    2.8579    0.0000    0.0000 C   0  0  0  0  0  0  0  0  0  0  0  0
    3.5724   -0.4125    0.0000 C   0  0  0  0  0  0  0  0  0  0  0  0
    3.5724   -1.2375    0.0000 C   0  0  0  0  0  0  0  0  0  0  0  0
    2.8579   -1.6500    0.0000 C   0  0  0  0  0  0  0  0  0  0  0  0
    2.8579   -2.4750    0.0000 C   0  0  0  0  0  0  0  0  0  0  0  0
    2.1434   -1.2375    0.0000 C   0  0  0  0  0  0  0  0  0  0  0  0
    1.4289   -1.6500    0.0000 N   0  0  0  0  0  0  0  0  0  0  0  0
  1  2  1  0  0  0  0
  2  3  1  0  0  0  0
  3  4  2  0  0  0  0
  4  5  1  0  0  0  0
  5  6  1  0  0  0  0
  6  7  1  0  0  0  0
  7  8  1  0  0  0  0
  4  9  1  0  0  0  0
  9 10  2  0  0  0  0
 10 11  1  0  0  0  0
 11 12  2  0  0  0  0
 12 13  1  0  0  0  0
 13 14  1  0  0  0  0
 13 15  2  0  0  0  0
  9 15  1  0  0  0  0
 15 16  1  0  0  0  0
  2 16  2  0  0  0  0
M  END
>  <Catalog ID>
Z1679826425

>  <PlateID>
1198308-R-SPFL-17

>  <Well>
D04

>  <MW (desalted)>
217.264

>  <ClogP>
2.574

>  <HBD>
1

>  <TPSA>
42.350

>  <RotBonds>
3

$$$$

            

 16 17  0  0  0  0            999 V2000
   -0.9851   -3.2777    0.0000 C   0  0  0  0  0  0  0  0  0  0  0  0
   -0.1781   -3.1062    0.0000 N   0  0  0  0  0  0  0  0  0  0  0  0
    0.0768   -2.3215    0.0000 C   0  0  0  0  0  0  0  0  0  0  0  0
   -0.4752   -1.7084    0.0000 O   0  0  0  0  0  0  0  0  0  0  0  0
    0.8838   -2.1500    0.0000 C   0  0  0  0  0  0  0  0  0  0  0  0
    1.1387   -1.3654    0.0000 N   0  0  0  0  0  0  0  0  0  0  0  0
    0.6538   -0.6979    0.0000 C   0  0  0  0  0  0  0  0  0  0  0  0
    1.1387   -0.0305    0.0000 C   0  0  0  0  0  0  0  0  0  0  0  0
    1.9233   -0.2854    0.0000 C   0  0  0  0  0  0  0  0  0  0  0  0
    2.6378    0.1271    0.0000 C   0  0  0  0  0  0  0  0  0  0  0  0
    3.3523   -0.2854    0.0000 C   0  0  0  0  0  0  0  0  0  0  0  0
    4.0668    0.1271    0.0000 O   0  0  0  0  0  0  0  0  0  0  0  0
    4.0668    0.9521    0.0000 C   0  0  0  0  0  0  0  0  0  0  0  0
    3.3523   -1.1104    0.0000 C   0  0  0  0  0  0  0  0  0  0  0  0
    2.6378   -1.5229    0.0000 C   0  0  0  0  0  0  0  0  0  0  0  0
    1.9233   -1.1104    0.0000 C   0  0  0  0  0  0  0  0  0  0  0  0
  1  2  1  0  0  0  0
  2  3  1  0  0  0  0
  3  4  2  0  0  0  0
  3  5  1  0  0  0  0
  5  6  1  0  0  0  0
  6  7  1  0  0  0  0
  7  8  2  0  0  0  0
  8  9  1  0  0  0  0
  9 10  2  0  0  0  0
 10 11  1  0  0  0  0
 11 12  1  0  0  0  0
 12 13  1  0  0  0  0
 11 14  2  0  0  0  0
 14 15  1  0  0  0  0
 15 16  2  0  0  0  0
  6 16  1  0  0  0  0
  9 16  1  0  0  0  0
M  END
>  <Catalog ID>
Z422500436

>  <PlateID>
1198308-R-SPFL-17

>  <Well>
D05

>  <MW (desalted)>
218.252

>  <ClogP>
1.570

>  <HBD>
1

>  <TPSA>
43.260

>  <RotBonds>
3

$$$$

            

 14 15  0  0  0  0            999 V2000
    2.1434   -0.4125    0.0000 O   0  0  0  0  0  0  0  0  0  0  0  0
    2.1434   -1.2375    0.0000 C   0  0  0  0  0  0  0  0  0  0  0  0
    2.8579   -1.6500    0.0000 C   0  0  0  0  0  0  0  0  0  0  0  0
    2.8579   -2.4750    0.0000 C   0  0  0  0  0  0  0  0  0  0  0  0
    2.1434   -2.8875    0.0000 N   0  0  0  0  0  0  0  0  0  0  0  0
    1.4289   -2.4750    0.0000 C   0  0  0  0  0  0  0  0  0  0  0  0
    1.4289   -1.6500    0.0000 N   0  0  0  0  0  0  0  0  0  0  0  0
    0.7145   -1.2375    0.0000 C   0  0  0  0  0  0  0  0  0  0  0  0
    0.7145   -0.4125    0.0000 C   0  0  0  0  0  0  0  0  0  0  0  0
    0.0000    0.0000    0.0000 C   0  0  0  0  0  0  0  0  0  0  0  0
    0.0000    0.8250    0.0000 C   0  0  0  0  0  0  0  0  0  0  0  0
    0.7145    1.2375    0.0000 C   0  0  0  0  0  0  0  0  0  0  0  0
    1.4289    0.8250    0.0000 C   0  0  0  0  0  0  0  0  0  0  0  0
    1.4289    0.0000    0.0000 C   0  0  0  0  0  0  0  0  0  0  0  0
  1  2  2  0  0  0  0
  2  3  1  0  0  0  0
  3  4  2  0  0  0  0
  4  5  1  0  0  0  0
  5  6  2  0  0  0  0
  6  7  1  0  0  0  0
  2  7  1  0  0  0  0
  7  8  1  0  0  0  0
  8  9  1  0  0  0  0
  9 10  2  0  0  0  0
 10 11  1  0  0  0  0
 11 12  2  0  0  0  0
 12 13  1  0  0  0  0
 13 14  2  0  0  0  0
  9 14  1  0  0  0  0
M  END
>  <Catalog ID>
Z1198152719

>  <PlateID>
1198308-R-SPFL-17

>  <Well>
D06

>  <MW (desalted)>
186.210

>  <ClogP>
0.821

>  <HBD>
0

>  <TPSA>
32.670

>  <RotBonds>
2

$$$$

            

 14 15  0  0  0  0            999 V2000
   -0.7145   -2.0625    0.0000 C   0  0  0  0  0  0  0  0  0  0  0  0
    0.0000   -1.6500    0.0000 S   0  0  0  0  0  0  0  0  0  0  0  0
    0.4125   -2.3645    0.0000 O   0  0  0  0  0  0  0  0  0  0  0  0
   -0.4125   -0.9355    0.0000 O   0  0  0  0  0  0  0  0  0  0  0  0
    0.7145   -1.2375    0.0000 C   0  0  0  0  0  0  0  0  0  0  0  0
    0.7145   -0.4125    0.0000 C   0  0  0  0  0  0  0  0  0  0  0  0
    1.4289    0.0000    0.0000 C   0  0  0  0  0  0  0  0  0  0  0  0
    2.1434   -0.4125    0.0000 C   0  0  0  0  0  0  0  0  0  0  0  0
    2.8579    0.0000    0.0000 N   0  0  0  0  0  0  0  0  0  0  0  0
    3.5724   -0.4125    0.0000 C   0  0  0  0  0  0  0  0  0  0  0  0
    3.5724   -1.2375    0.0000 C   0  0  0  0  0  0  0  0  0  0  0  0
    2.8579   -1.6500    0.0000 C   0  0  0  0  0  0  0  0  0  0  0  0
    2.1434   -1.2375    0.0000 C   0  0  0  0  0  0  0  0  0  0  0  0
    1.4289   -1.6500    0.0000 C   0  0  0  0  0  0  0  0  0  0  0  0
  1  2  1  0  0  0  0
  2  3  2  0  0  0  0
  2  4  2  0  0  0  0
  2  5  1  0  0  0  0
  5  6  1  0  0  0  0
  6  7  2  0  0  0  0
  7  8  1  0  0  0  0
  8  9  2  0  0  0  0
  9 10  1  0  0  0  0
 10 11  2  0  0  0  0
 11 12  1  0  0  0  0
 12 13  2  0  0  0  0
  8 13  1  0  0  0  0
 13 14  1  0  0  0  0
  5 14  2  0  0  0  0
M  END
>  <Catalog ID>
Z1066277054

>  <PlateID>
1198308-R-SPFL-17

>  <Well>
D07

>  <MW (desalted)>
207.249

>  <ClogP>
0.849

>  <HBD>
0

>  <TPSA>
47.030

>  <RotBonds>
1

$$$$

            

 15 16  0  0  0  0            999 V2000
   -0.4331   -3.8908    0.0000 N   0  0  0  0  0  0  0  0  0  0  0  0
   -0.1781   -3.1062    0.0000 S   0  0  0  0  0  0  0  0  0  0  0  0
    0.6065   -3.3611    0.0000 O   0  0  0  0  0  0  0  0  0  0  0  0
   -0.9628   -2.8512    0.0000 O   0  0  0  0  0  0  0  0  0  0  0  0
    0.0768   -2.3215    0.0000 C   0  0  0  0  0  0  0  0  0  0  0  0
    0.8838   -2.1500    0.0000 C   0  0  0  0  0  0  0  0  0  0  0  0
    1.1387   -1.3654    0.0000 C   0  0  0  0  0  0  0  0  0  0  0  0
    0.6538   -0.6979    0.0000 C   0  0  0  0  0  0  0  0  0  0  0  0
    1.1387   -0.0305    0.0000 C   0  0  0  0  0  0  0  0  0  0  0  0
    1.9233   -0.2854    0.0000 C   0  0  0  0  0  0  0  0  0  0  0  0
    2.6378    0.1271    0.0000 C   0  0  0  0  0  0  0  0  0  0  0  0
    3.3523   -0.2854    0.0000 C   0  0  0  0  0  0  0  0  0  0  0  0
    3.3523   -1.1104    0.0000 C   0  0  0  0  0  0  0  0  0  0  0  0
    2.6378   -1.5229    0.0000 C   0  0  0  0  0  0  0  0  0  0  0  0
    1.9233   -1.1104    0.0000 C   0  0  0  0  0  0  0  0  0  0  0  0
  1  2  1  0  0  0  0
  2  3  2  0  0  0  0
  2  4  2  0  0  0  0
  2  5  1  0  0  0  0
  5  6  1  0  0  0  0
  6  7  1  0  0  0  0
  7  8  1  0  0  0  0
  8  9  1  0  0  0  0
  9 10  1  0  0  0  0
 10 11  2  0  0  0  0
 11 12  1  0  0  0  0
 12 13  2  0  0  0  0
 13 14  1  0  0  0  0
 14 15  2  0  0  0  0
  7 15  1  0  0  0  0
 10 15  1  0  0  0  0
M  END
>  <Catalog ID>
Z2234197721

>  <PlateID>
1198308-R-SPFL-17

>  <Well>
D08

>  <MW (desalted)>
225.307

>  <ClogP>
1.486

>  <HBD>
1

>  <TPSA>
60.160

>  <RotBonds>
3

$$$$

            

 14 15  0  0  0  0            999 V2000
    0.0768   -2.3215    0.0000 C   0  0  0  0  0  0  0  0  0  0  0  0
    0.8838   -2.1500    0.0000 C   0  0  0  0  0  0  0  0  0  0  0  0
    1.4358   -2.7631    0.0000 C   0  0  0  0  0  0  0  0  0  0  0  0
    1.1387   -1.3654    0.0000 N   0  0  0  0  0  0  0  0  0  0  0  0
    0.6538   -0.6979    0.0000 N   0  0  0  0  0  0  0  0  0  0  0  0
    1.1387   -0.0305    0.0000 C   0  0  0  0  0  0  0  0  0  0  0  0
    1.9233   -0.2854    0.0000 C   0  0  0  0  0  0  0  0  0  0  0  0
    2.6378    0.1271    0.0000 C   0  0  0  0  0  0  0  0  0  0  0  0
    2.6378    0.9521    0.0000 C   0  0  0  0  0  0  0  0  0  0  0  0
    3.3523   -0.2854    0.0000 C   0  0  0  0  0  0  0  0  0  0  0  0
    3.3523   -1.1104    0.0000 C   0  0  0  0  0  0  0  0  0  0  0  0
    4.0668   -1.5229    0.0000 O   0  0  0  0  0  0  0  0  0  0  0  0
    2.6378   -1.5229    0.0000 N   0  0  0  0  0  0  0  0  0  0  0  0
    1.9233   -1.1104    0.0000 C   0  0  0  0  0  0  0  0  0  0  0  0
  1  2  1  0  0  0  0
  2  3  1  0  0  0  0
  2  4  1  0  0  0  0
  4  5  1  0  0  0  0
  5  6  2  0  0  0  0
  6  7  1  0  0  0  0
  7  8  1  0  0  0  0
  8  9  1  0  0  0  0
  8 10  2  0  0  0  0
 10 11  1  0  0  0  0
 11 12  2  0  0  0  0
 11 13  1  0  0  0  0
 13 14  1  0  0  0  0
  4 14  1  0  0  0  0
  7 14  2  0  0  0  0
M  END
>  <Catalog ID>
Z234855772

>  <PlateID>
1198308-R-SPFL-17

>  <Well>
D09

>  <MW (desalted)>
191.230

>  <ClogP>
0.648

>  <HBD>
1

>  <TPSA>
46.920

>  <RotBonds>
1

$$$$

            

 12 13  0  0  0  0            999 V2000
    1.4289   -2.4750    0.0000 F   0  0  0  0  0  0  0  0  0  0  0  0
    1.4289   -1.6500    0.0000 C   0  0  0  0  0  0  0  0  0  0  0  0
    0.7145   -1.2375    0.0000 C   0  0  0  0  0  0  0  0  0  0  0  0
    0.7145   -0.4125    0.0000 C   0  0  0  0  0  0  0  0  0  0  0  0
    1.4289    0.0000    0.0000 C   0  0  0  0  0  0  0  0  0  0  0  0
    2.1434   -0.4125    0.0000 C   0  0  0  0  0  0  0  0  0  0  0  0
    2.8579    0.0000    0.0000 C   0  0  0  0  0  0  0  0  0  0  0  0
    3.5724   -0.4125    0.0000 C   0  0  0  0  0  0  0  0  0  0  0  0
    3.5724   -1.2375    0.0000 N   0  0  0  0  0  0  0  0  0  0  0  0
    2.8579   -1.6500    0.0000 C   0  0  0  0  0  0  0  0  0  0  0  0
    2.8579   -2.4750    0.0000 O   0  0  0  0  0  0  0  0  0  0  0  0
    2.1434   -1.2375    0.0000 C   0  0  0  0  0  0  0  0  0  0  0  0
  1  2  1  0  0  0  0
  2  3  1  0  0  0  0
  3  4  2  0  0  0  0
  4  5  1  0  0  0  0
  5  6  2  0  0  0  0
  6  7  1  0  0  0  0
  7  8  2  0  0  0  0
  8  9  1  0  0  0  0
  9 10  1  0  0  0  0
 10 11  2  0  0  0  0
 10 12  1  0  0  0  0
  2 12  2  0  0  0  0
  6 12  1  0  0  0  0
M  END
>  <Catalog ID>
Z1255389425

>  <PlateID>
1198308-R-SPFL-17

>  <Well>
D10

>  <MW (desalted)>
163.148

>  <ClogP>
1.102

>  <HBD>
1

>  <TPSA>
29.100

>  <RotBonds>
0

$$$$

            

 11 11  0  0  0  0            999 V2000
    0.0000    2.4750    0.0000 O   0  0  0  0  0  0  0  0  0  0  0  0
    0.7145    2.0625    0.0000 C   0  0  0  0  0  0  0  0  0  0  0  0
    1.4289    2.4750    0.0000 O   0  0  0  0  0  0  0  0  0  0  0  0
    0.7145    1.2375    0.0000 C   0  0  0  0  0  0  0  0  0  0  0  0
    1.4289    0.8250    0.0000 C   0  0  0  0  0  0  0  0  0  0  0  0
    1.4289   -0.0000    0.0000 C   0  0  0  0  0  0  0  0  0  0  0  0
    2.1434   -0.4125    0.0000 C   0  0  0  0  0  0  0  0  0  0  0  0
    2.8579   -0.8250    0.0000 C   0  0  0  0  0  0  0  0  0  0  0  0
    0.7145   -0.4125    0.0000 C   0  0  0  0  0  0  0  0  0  0  0  0
    0.0000    0.0000    0.0000 C   0  0  0  0  0  0  0  0  0  0  0  0
    0.0000    0.8250    0.0000 N   0  0  0  0  0  0  0  0  0  0  0  0
  1  2  1  0  0  0  0
  2  3  2  0  0  0  0
  2  4  1  0  0  0  0
  4  5  2  0  0  0  0
  5  6  1  0  0  0  0
  6  7  1  0  0  0  0
  7  8  3  0  0  0  0
  6  9  2  0  0  0  0
  9 10  1  0  0  0  0
 10 11  2  0  0  0  0
  4 11  1  0  0  0  0
M  END
>  <Catalog ID>
Z1255441766

>  <PlateID>
1198308-R-SPFL-17

>  <Well>
D11

>  <MW (desalted)>
147.131

>  <ClogP>
1.269

>  <HBD>
1

>  <TPSA>
50.190

>  <RotBonds>
1

$$$$

            

 16 17  0  0  0  0            999 V2000
    1.4289   -1.6500    0.0000 F   0  0  0  0  0  0  0  0  0  0  0  0
    1.4289   -2.4750    0.0000 C   0  0  0  0  0  0  0  0  0  0  0  0
    2.1434   -2.8875    0.0000 C   0  0  0  0  0  0  0  0  0  0  0  0
    2.1434   -3.7125    0.0000 C   0  0  0  0  0  0  0  0  0  0  0  0
    1.4289   -4.1250    0.0000 C   0  0  0  0  0  0  0  0  0  0  0  0
    0.7145   -3.7125    0.0000 C   0  0  0  0  0  0  0  0  0  0  0  0
    0.7145   -2.8875    0.0000 C   0  0  0  0  0  0  0  0  0  0  0  0
    0.0000   -2.4750    0.0000 N   0  0  0  0  0  0  0  0  0  0  0  0
   -0.7145   -2.8875    0.0000 C   0  0  0  0  0  0  0  0  0  0  0  0
   -0.7145   -3.7125    0.0000 O   0  0  0  0  0  0  0  0  0  0  0  0
   -1.4289   -2.4750    0.0000 C   0  0  0  0  0  0  0  0  0  0  0  0
   -2.1434   -2.8875    0.0000 C   0  0  0  0  0  0  0  0  0  0  0  0
   -2.8579   -2.4750    0.0000 N   0  0  0  0  0  0  0  0  0  0  0  0
   -2.8579   -1.6500    0.0000 C   0  0  0  0  0  0  0  0  0  0  0  0
   -2.1434   -1.2375    0.0000 C   0  0  0  0  0  0  0  0  0  0  0  0
   -1.4289   -1.6500    0.0000 N   0  0  0  0  0  0  0  0  0  0  0  0
  1  2  1  0  0  0  0
  2  3  2  0  0  0  0
  3  4  1  0  0  0  0
  4  5  2  0  0  0  0
  5  6  1  0  0  0  0
  6  7  2  0  0  0  0
  2  7  1  0  0  0  0
  7  8  1  0  0  0  0
  8  9  1  0  0  0  0
  9 10  2  0  0  0  0
  9 11  1  0  0  0  0
 11 12  2  0  0  0  0
 12 13  1  0  0  0  0
 13 14  2  0  0  0  0
 14 15  1  0  0  0  0
 15 16  2  0  0  0  0
 11 16  1  0  0  0  0
M  END
>  <Catalog ID>
Z28290383

>  <PlateID>
1198308-R-SPFL-17

>  <Well>
E02

>  <MW (desalted)>
217.199

>  <ClogP>
1.039

>  <HBD>
1

>  <TPSA>
54.880

>  <RotBonds>
2

$$$$

            

 14 15  0  0  0  0            999 V2000
    1.4289   -1.6500    0.0000 N   0  0  0  0  0  0  0  0  0  0  0  0
    1.4289   -2.4750    0.0000 C   0  0  0  0  0  0  0  0  0  0  0  0
    2.0964   -2.9599    0.0000 C   0  0  0  0  0  0  0  0  0  0  0  0
    1.8414   -3.7445    0.0000 C   0  0  0  0  0  0  0  0  0  0  0  0
    1.0164   -3.7445    0.0000 N   0  0  0  0  0  0  0  0  0  0  0  0
    0.7615   -2.9599    0.0000 N   0  0  0  0  0  0  0  0  0  0  0  0
   -0.0231   -2.7050    0.0000 C   0  0  0  0  0  0  0  0  0  0  0  0
   -0.6362   -3.2570    0.0000 C   0  0  0  0  0  0  0  0  0  0  0  0
   -1.4208   -3.0021    0.0000 C   0  0  0  0  0  0  0  0  0  0  0  0
   -2.0339   -3.5541    0.0000 C   0  0  0  0  0  0  0  0  0  0  0  0
   -2.8186   -3.2992    0.0000 C   0  0  0  0  0  0  0  0  0  0  0  0
   -2.9901   -2.4922    0.0000 C   0  0  0  0  0  0  0  0  0  0  0  0
   -2.3770   -1.9402    0.0000 C   0  0  0  0  0  0  0  0  0  0  0  0
   -1.5924   -2.1951    0.0000 C   0  0  0  0  0  0  0  0  0  0  0  0
  1  2  1  0  0  0  0
  2  3  2  0  0  0  0
  3  4  1  0  0  0  0
  4  5  2  0  0  0  0
  5  6  1  0  0  0  0
  2  6  1  0  0  0  0
  6  7  1  0  0  0  0
  7  8  1  0  0  0  0
  8  9  1  0  0  0  0
  9 10  2  0  0  0  0
 10 11  1  0  0  0  0
 11 12  2  0  0  0  0
 12 13  1  0  0  0  0
 13 14  2  0  0  0  0
  9 14  1  0  0  0  0
M  END
>  <Catalog ID>
Z240125132

>  <PlateID>
1198308-R-SPFL-17

>  <Well>
E03

>  <MW (desalted)>
187.241

>  <ClogP>
1.569

>  <HBD>
1

>  <TPSA>
43.840

>  <RotBonds>
3

$$$$

            

 16 17  0  0  0  0            999 V2000
    1.4289   -1.6500    0.0000 C   0  0  0  0  0  0  0  0  0  0  0  0
    1.4289   -2.4750    0.0000 C   0  0  0  0  0  0  0  0  0  0  0  0
    2.1434   -2.8875    0.0000 C   0  0  0  0  0  0  0  0  0  0  0  0
    2.1434   -3.7125    0.0000 N   0  0  0  0  0  0  0  0  0  0  0  0
    1.4289   -4.1250    0.0000 C   0  0  0  0  0  0  0  0  0  0  0  0
    0.7145   -3.7125    0.0000 C   0  0  0  0  0  0  0  0  0  0  0  0
    0.7145   -2.8875    0.0000 N   0  0  0  0  0  0  0  0  0  0  0  0
    1.4289   -4.9500    0.0000 C   0  0  0  0  0  0  0  0  0  0  0  0
    0.7145   -5.3625    0.0000 O   0  0  0  0  0  0  0  0  0  0  0  0
    2.1434   -5.3625    0.0000 N   0  0  0  0  0  0  0  0  0  0  0  0
    2.1434   -6.1875    0.0000 C   0  0  0  0  0  0  0  0  0  0  0  0
    2.8579   -6.6000    0.0000 C   0  0  0  0  0  0  0  0  0  0  0  0
    2.8579   -7.4250    0.0000 C   0  0  0  0  0  0  0  0  0  0  0  0
    2.1434   -7.8375    0.0000 C   0  0  0  0  0  0  0  0  0  0  0  0
    1.4289   -7.4250    0.0000 C   0  0  0  0  0  0  0  0  0  0  0  0
    1.4289   -6.6000    0.0000 C   0  0  0  0  0  0  0  0  0  0  0  0
  1  2  1  0  0  0  0
  2  3  2  0  0  0  0
  3  4  1  0  0  0  0
  4  5  2  0  0  0  0
  5  6  1  0  0  0  0
  6  7  2  0  0  0  0
  2  7  1  0  0  0  0
  5  8  1  0  0  0  0
  8  9  2  0  0  0  0
  8 10  1  0  0  0  0
 10 11  1  0  0  0  0
 11 12  2  0  0  0  0
 12 13  1  0  0  0  0
 13 14  2  0  0  0  0
 14 15  1  0  0  0  0
 15 16  2  0  0  0  0
 11 16  1  0  0  0  0
M  END
>  <Catalog ID>
Z27782769

>  <PlateID>
1198308-R-SPFL-17

>  <Well>
E04

>  <MW (desalted)>
213.235

>  <ClogP>
1.963

>  <HBD>
1

>  <TPSA>
54.880

>  <RotBonds>
2

$$$$

            

 15 16  0  0  0  0            999 V2000
   -0.6078   -1.2991    0.0000 O   0  0  0  0  0  0  0  0  0  0  0  0
   -1.3222   -1.7116    0.0000 C   0  0  0  0  0  0  0  0  0  0  0  0
   -2.0367   -1.2991    0.0000 C   0  0  0  0  0  0  0  0  0  0  0  0
   -2.0367   -0.4741    0.0000 O   0  0  0  0  0  0  0  0  0  0  0  0
   -2.7512   -0.0616    0.0000 C   0  0  0  0  0  0  0  0  0  0  0  0
   -3.4656   -0.4741    0.0000 C   0  0  0  0  0  0  0  0  0  0  0  0
   -4.1801   -0.0616    0.0000 C   0  0  0  0  0  0  0  0  0  0  0  0
   -4.1801    0.7634    0.0000 C   0  0  0  0  0  0  0  0  0  0  0  0
   -3.4656    1.1759    0.0000 C   0  0  0  0  0  0  0  0  0  0  0  0
   -2.7512    0.7634    0.0000 C   0  0  0  0  0  0  0  0  0  0  0  0
   -1.3222   -2.5366    0.0000 N   0  0  0  0  0  0  0  0  0  0  0  0
   -0.6548   -3.0215    0.0000 C   0  0  0  0  0  0  0  0  0  0  0  0
   -0.9097   -3.8062    0.0000 C   0  0  0  0  0  0  0  0  0  0  0  0
   -1.7347   -3.8062    0.0000 S   0  0  0  0  0  0  0  0  0  0  0  0
   -1.9897   -3.0215    0.0000 C   0  0  0  0  0  0  0  0  0  0  0  0
  1  2  2  0  0  0  0
  2  3  1  0  0  0  0
  3  4  1  0  0  0  0
  4  5  1  0  0  0  0
  5  6  2  0  0  0  0
  6  7  1  0  0  0  0
  7  8  2  0  0  0  0
  8  9  1  0  0  0  0
  9 10  2  0  0  0  0
  5 10  1  0  0  0  0
  2 11  1  0  0  0  0
 11 12  1  0  0  0  0
 12 13  1  0  0  0  0
 13 14  1  0  0  0  0
 14 15  1  0  0  0  0
 11 15  1  0  0  0  0
M  END
>  <Catalog ID>
Z1126848754

>  <PlateID>
1198308-R-SPFL-17

>  <Well>
E05

>  <MW (desalted)>
223.291

>  <ClogP>
2.279

>  <HBD>
0

>  <TPSA>
29.540

>  <RotBonds>
3

$$$$

            

 15 16  0  0  0  0            999 V2000
    0.0000   -1.6500    0.0000 O   0  0  0  0  0  0  0  0  0  0  0  0
    0.7145   -1.2375    0.0000 C   0  0  0  0  0  0  0  0  0  0  0  0
    1.4289   -1.6500    0.0000 N   0  0  0  0  0  0  0  0  0  0  0  0
    1.4289   -2.4750    0.0000 C   0  0  0  0  0  0  0  0  0  0  0  0
    2.1434   -2.8875    0.0000 C   0  0  0  0  0  0  0  0  0  0  0  0
    2.1434   -3.7125    0.0000 C   0  0  0  0  0  0  0  0  0  0  0  0
    1.4289   -4.1250    0.0000 C   0  0  0  0  0  0  0  0  0  0  0  0
    0.7145   -3.7125    0.0000 C   0  0  0  0  0  0  0  0  0  0  0  0
    0.7145   -2.8875    0.0000 C   0  0  0  0  0  0  0  0  0  0  0  0
    0.7145   -0.4125    0.0000 C   0  0  0  0  0  0  0  0  0  0  0  0
    0.0000    0.0000    0.0000 C   0  0  0  0  0  0  0  0  0  0  0  0
    0.0000    0.8250    0.0000 C   0  0  0  0  0  0  0  0  0  0  0  0
    0.7145    1.2375    0.0000 N   0  0  0  0  0  0  0  0  0  0  0  0
    1.4289    0.8250    0.0000 C   0  0  0  0  0  0  0  0  0  0  0  0
    1.4289    0.0000    0.0000 C   0  0  0  0  0  0  0  0  0  0  0  0
  1  2  2  0  0  0  0
  2  3  1  0  0  0  0
  3  4  1  0  0  0  0
  4  5  1  0  0  0  0
  5  6  1  0  0  0  0
  6  7  1  0  0  0  0
  7  8  1  0  0  0  0
  8  9  1  0  0  0  0
  4  9  1  0  0  0  0
  2 10  1  0  0  0  0
 10 11  2  0  0  0  0
 11 12  1  0  0  0  0
 12 13  2  0  0  0  0
 13 14  1  0  0  0  0
 14 15  2  0  0  0  0
 10 15  1  0  0  0  0
M  END
>  <Catalog ID>
Z31484238

>  <PlateID>
1198308-R-SPFL-17

>  <Well>
E06

>  <MW (desalted)>
204.268

>  <ClogP>
2.139

>  <HBD>
1

>  <TPSA>
41.990

>  <RotBonds>
2

$$$$

            

 11 12  0  0  0  0            999 V2000
   -0.0404   -0.2549    0.0000 C   0  0  0  0  0  0  0  0  0  0  0  0
    0.7846   -0.2549    0.0000 C   0  0  0  0  0  0  0  0  0  0  0  0
    1.2695    0.4125    0.0000 N   0  0  0  0  0  0  0  0  0  0  0  0
    2.0542    0.1576    0.0000 C   0  0  0  0  0  0  0  0  0  0  0  0
    2.8388    0.4125    0.0000 S   0  0  0  0  0  0  0  0  0  0  0  0
    3.3237   -0.2549    0.0000 C   0  0  0  0  0  0  0  0  0  0  0  0
    2.8388   -0.9224    0.0000 C   0  0  0  0  0  0  0  0  0  0  0  0
    2.0542   -0.6674    0.0000 N   0  0  0  0  0  0  0  0  0  0  0  0
    1.2695   -0.9224    0.0000 C   0  0  0  0  0  0  0  0  0  0  0  0
    1.0146   -1.7070    0.0000 C   0  0  0  0  0  0  0  0  0  0  0  0
    0.2076   -1.8785    0.0000 O   0  0  0  0  0  0  0  0  0  0  0  0
  1  2  1  0  0  0  0
  2  3  1  0  0  0  0
  3  4  2  0  0  0  0
  4  5  1  0  0  0  0
  5  6  1  0  0  0  0
  6  7  2  0  0  0  0
  7  8  1  0  0  0  0
  4  8  1  0  0  0  0
  8  9  1  0  0  0  0
  2  9  2  0  0  0  0
  9 10  1  0  0  0  0
 10 11  1  0  0  0  0
M  END
>  <Catalog ID>
Z445987540

>  <PlateID>
1198308-R-SPFL-17

>  <Well>
E07

>  <MW (desalted)>
168.216

>  <ClogP>
0.578

>  <HBD>
1

>  <TPSA>
37.530

>  <RotBonds>
1

$$$$

            

 13 12  0  0  0  0            999 V2000
    0.0000    0.0000    0.0000 Cl  0  0  0  0  0  0  0  0  0  0  0  0
    2.0036    0.0000    0.0000 Cl  0  0  0  0  0  0  0  0  0  0  0  0
   -0.4125   -5.3945    0.0000 C   0  0  0  0  0  0  0  0  0  0  0  0
   -0.6674   -4.6099    0.0000 C   0  0  0  0  0  0  0  0  0  0  0  0
    0.0000   -4.1250    0.0000 N   0  0  0  0  0  0  0  0  0  0  0  0
    0.6674   -4.6099    0.0000 C   0  0  0  0  0  0  0  0  0  0  0  0
    0.4125   -5.3945    0.0000 N   0  0  0  0  0  0  0  0  0  0  0  0
    0.0000   -3.3000    0.0000 C   0  0  0  0  0  0  0  0  0  0  0  0
   -0.7145   -2.8875    0.0000 C   0  0  0  0  0  0  0  0  0  0  0  0
   -0.7145   -2.0625    0.0000 C   0  0  0  0  0  0  0  0  0  0  0  0
   -0.0000   -1.6500    0.0000 C   0  0  0  0  0  0  0  0  0  0  0  0
    0.7145   -2.0625    0.0000 N   0  0  0  0  0  0  0  0  0  0  0  0
    0.7145   -2.8875    0.0000 C   0  0  0  0  0  0  0  0  0  0  0  0
  3  4  2  0  0  0  0
  4  5  1  0  0  0  0
  5  6  1  0  0  0  0
  6  7  2  0  0  0  0
  3  7  1  0  0  0  0
  5  8  1  0  0  0  0
  8  9  2  0  0  0  0
  9 10  1  0  0  0  0
 10 11  2  0  0  0  0
 11 12  1  0  0  0  0
 12 13  2  0  0  0  0
  8 13  1  0  0  0  0
M  END
>  <Catalog ID>
Z1946235610

>  <PlateID>
1198308-R-SPFL-17

>  <Well>
E08

>  <MW (desalted)>
145.161

>  <ClogP>
0.703

>  <HBD>
0

>  <TPSA>
30.710

>  <RotBonds>
1

$$$$

            

 15 17  0  0  0  0            999 V2000
    0.2356   -1.1665    0.0000 C   0  0  0  0  0  0  0  0  0  0  0  0
    0.4750   -0.3770    0.0000 N   0  0  0  0  0  0  0  0  0  0  0  0
   -0.0890    0.2251    0.0000 C   0  0  0  0  0  0  0  0  0  0  0  0
   -0.8924    0.0377    0.0000 O   0  0  0  0  0  0  0  0  0  0  0  0
    0.1505    1.0146    0.0000 N   0  0  0  0  0  0  0  0  0  0  0  0
    0.9539    1.2020    0.0000 C   0  0  0  0  0  0  0  0  0  0  0  0
    1.1933    1.9915    0.0000 O   0  0  0  0  0  0  0  0  0  0  0  0
    1.5179    0.5999    0.0000 C   0  0  0  0  0  0  0  0  0  0  0  0
    2.3427    0.6162    0.0000 N   0  0  0  0  0  0  0  0  0  0  0  0
    3.0005    1.1142    0.0000 C   0  0  0  0  0  0  0  0  0  0  0  0
    3.6774    0.6425    0.0000 C   0  0  0  0  0  0  0  0  0  0  0  0
    3.4379   -0.1470    0.0000 S   0  0  0  0  0  0  0  0  0  0  0  0
    2.6131   -0.1633    0.0000 C   0  0  0  0  0  0  0  0  0  0  0  0
    1.9554   -0.6613    0.0000 N   0  0  0  0  0  0  0  0  0  0  0  0
    1.2785   -0.1896    0.0000 C   0  0  0  0  0  0  0  0  0  0  0  0
  1  2  1  0  0  0  0
  2  3  1  0  0  0  0
  3  4  2  0  0  0  0
  3  5  1  0  0  0  0
  5  6  1  0  0  0  0
  6  7  2  0  0  0  0
  6  8  1  0  0  0  0
  8  9  1  0  0  0  0
  9 10  1  0  0  0  0
 10 11  1  0  0  0  0
 11 12  1  0  0  0  0
 12 13  1  0  0  0  0
  9 13  1  0  0  0  0
 13 14  2  0  0  0  0
 14 15  1  0  0  0  0
  2 15  1  0  0  0  0
  8 15  2  0  0  0  0
M  END
>  <Catalog ID>
Z223825122

>  <PlateID>
1198308-R-SPFL-17

>  <Well>
E09

>  <MW (desalted)>
224.240

>  <ClogP>
-0.041

>  <HBD>
1

>  <TPSA>
67.230

>  <RotBonds>
0

$$$$

            

 15 16  0  0  0  0            999 V2000
    1.4289   -0.0000    0.0000 N   0  0  0  0  0  0  0  0  0  0  0  0
    0.7145   -0.4125    0.0000 C   0  0  0  0  0  0  0  0  0  0  0  0
    0.0000    0.0000    0.0000 O   0  0  0  0  0  0  0  0  0  0  0  0
    0.7145   -1.2375    0.0000 N   0  0  0  0  0  0  0  0  0  0  0  0
    1.4289   -1.6500    0.0000 C   0  0  0  0  0  0  0  0  0  0  0  0
    1.4289   -2.4750    0.0000 C   0  0  0  0  0  0  0  0  0  0  0  0
    0.7145   -2.8875    0.0000 O   0  0  0  0  0  0  0  0  0  0  0  0
    0.0000   -2.4750    0.0000 C   0  0  0  0  0  0  0  0  0  0  0  0
    0.0000   -1.6500    0.0000 C   0  0  0  0  0  0  0  0  0  0  0  0
   -0.7145   -2.8875    0.0000 C   0  0  0  0  0  0  0  0  0  0  0  0
   -0.7145   -3.7125    0.0000 C   0  0  0  0  0  0  0  0  0  0  0  0
   -1.4289   -4.1250    0.0000 C   0  0  0  0  0  0  0  0  0  0  0  0
   -2.1434   -3.7125    0.0000 C   0  0  0  0  0  0  0  0  0  0  0  0
   -2.1434   -2.8875    0.0000 C   0  0  0  0  0  0  0  0  0  0  0  0
   -1.4289   -2.4750    0.0000 C   0  0  0  0  0  0  0  0  0  0  0  0
  1  2  1  0  0  0  0
  2  3  2  0  0  0  0
  2  4  1  0  0  0  0
  4  5  1  0  0  0  0
  5  6  1  0  0  0  0
  6  7  1  0  0  0  0
  7  8  1  0  0  0  0
  8  9  1  0  0  0  0
  4  9  1  0  0  0  0
  8 10  1  0  0  0  0
 10 11  2  0  0  0  0
 11 12  1  0  0  0  0
 12 13  2  0  0  0  0
 13 14  1  0  0  0  0
 14 15  2  0  0  0  0
 10 15  1  0  0  0  0
M  END
>  <Catalog ID>
Z287314598

>  <PlateID>
1198308-R-SPFL-17

>  <Well>
E10

>  <MW (desalted)>
206.241

>  <ClogP>
-0.061

>  <HBD>
1

>  <TPSA>
55.560

>  <RotBonds>
1

$$$$

            

 13 14  0  0  0  0            999 V2000
    0.7145   -2.8875    0.0000 C   0  0  0  0  0  0  0  0  0  0  0  0
    1.4289   -2.4750    0.0000 O   0  0  0  0  0  0  0  0  0  0  0  0
    1.4289   -1.6500    0.0000 C   0  0  0  0  0  0  0  0  0  0  0  0
    0.7145   -1.2375    0.0000 C   0  0  0  0  0  0  0  0  0  0  0  0
    0.7145   -0.4125    0.0000 C   0  0  0  0  0  0  0  0  0  0  0  0
    1.4289    0.0000    0.0000 C   0  0  0  0  0  0  0  0  0  0  0  0
    2.1434   -0.4125    0.0000 C   0  0  0  0  0  0  0  0  0  0  0  0
    2.8579    0.0000    0.0000 N   0  0  0  0  0  0  0  0  0  0  0  0
    3.5724   -0.4125    0.0000 C   0  0  0  0  0  0  0  0  0  0  0  0
    3.5724   -1.2375    0.0000 C   0  0  0  0  0  0  0  0  0  0  0  0
    4.2868   -1.6500    0.0000 Cl  0  0  0  0  0  0  0  0  0  0  0  0
    2.8579   -1.6500    0.0000 C   0  0  0  0  0  0  0  0  0  0  0  0
    2.1434   -1.2375    0.0000 C   0  0  0  0  0  0  0  0  0  0  0  0
  1  2  1  0  0  0  0
  2  3  1  0  0  0  0
  3  4  2  0  0  0  0
  4  5  1  0  0  0  0
  5  6  2  0  0  0  0
  6  7  1  0  0  0  0
  7  8  2  0  0  0  0
  8  9  1  0  0  0  0
  9 10  2  0  0  0  0
 10 11  1  0  0  0  0
 10 12  1  0  0  0  0
 12 13  2  0  0  0  0
  3 13  1  0  0  0  0
  7 13  1  0  0  0  0
M  END
>  <Catalog ID>
Z4167932641

>  <PlateID>
1198308-R-SPFL-17

>  <Well>
E11

>  <MW (desalted)>
193.630

>  <ClogP>
3.074

>  <HBD>
0

>  <TPSA>
22.120

>  <RotBonds>
1

$$$$

            

 13 14  0  0  0  0            999 V2000
    4.7812    3.5854    0.0000 C   0  0  0  0  0  0  0  0  0  0  0  0
    4.0668    3.1729    0.0000 N   0  0  0  0  0  0  0  0  0  0  0  0
    4.0668    2.3479    0.0000 C   0  0  0  0  0  0  0  0  0  0  0  0
    4.7812    1.9354    0.0000 O   0  0  0  0  0  0  0  0  0  0  0  0
    3.3523    1.9354    0.0000 C   0  0  0  0  0  0  0  0  0  0  0  0
    3.3523    1.1104    0.0000 C   0  0  0  0  0  0  0  0  0  0  0  0
    2.6378    0.6979    0.0000 C   0  0  0  0  0  0  0  0  0  0  0  0
    1.9233    1.1104    0.0000 C   0  0  0  0  0  0  0  0  0  0  0  0
    1.1387    0.8555    0.0000 N   0  0  0  0  0  0  0  0  0  0  0  0
    0.6538    1.5229    0.0000 C   0  0  0  0  0  0  0  0  0  0  0  0
    1.1387    2.1904    0.0000 S   0  0  0  0  0  0  0  0  0  0  0  0
    1.9233    1.9354    0.0000 C   0  0  0  0  0  0  0  0  0  0  0  0
    2.6378    2.3479    0.0000 C   0  0  0  0  0  0  0  0  0  0  0  0
  1  2  1  0  0  0  0
  2  3  1  0  0  0  0
  3  4  2  0  0  0  0
  3  5  1  0  0  0  0
  5  6  2  0  0  0  0
  6  7  1  0  0  0  0
  7  8  2  0  0  0  0
  8  9  1  0  0  0  0
  9 10  2  0  0  0  0
 10 11  1  0  0  0  0
 11 12  1  0  0  0  0
  8 12  1  0  0  0  0
 12 13  2  0  0  0  0
  5 13  1  0  0  0  0
M  END
>  <Catalog ID>
Z32016296

>  <PlateID>
1198308-R-SPFL-17

>  <Well>
F02

>  <MW (desalted)>
192.238

>  <ClogP>
1.360

>  <HBD>
1

>  <TPSA>
41.990

>  <RotBonds>
1

$$$$

            

 13 14  0  0  0  0            999 V2000
    1.0953   -0.0756    0.0000 C   0  0  0  0  0  0  0  0  0  0  0  0
    1.6473   -0.6887    0.0000 C   0  0  0  0  0  0  0  0  0  0  0  0
    2.3148   -1.1736    0.0000 N   0  0  0  0  0  0  0  0  0  0  0  0
    2.0598   -1.9582    0.0000 C   0  0  0  0  0  0  0  0  0  0  0  0
    2.5447   -2.6257    0.0000 O   0  0  0  0  0  0  0  0  0  0  0  0
    1.2348   -1.9582    0.0000 N   0  0  0  0  0  0  0  0  0  0  0  0
    0.9799   -1.1736    0.0000 C   0  0  0  0  0  0  0  0  0  0  0  0
    0.1953   -0.9187    0.0000 O   0  0  0  0  0  0  0  0  0  0  0  0
    2.1994   -0.0756    0.0000 C   0  0  0  0  0  0  0  0  0  0  0  0
    2.0278    0.7314    0.0000 C   0  0  0  0  0  0  0  0  0  0  0  0
    2.7423    1.1439    0.0000 C   0  0  0  0  0  0  0  0  0  0  0  0
    3.3554    0.5919    0.0000 S   0  0  0  0  0  0  0  0  0  0  0  0
    3.0198   -0.1618    0.0000 C   0  0  0  0  0  0  0  0  0  0  0  0
  1  2  1  0  0  0  0
  2  3  1  0  0  0  0
  3  4  1  0  0  0  0
  4  5  2  0  0  0  0
  4  6  1  0  0  0  0
  6  7  1  0  0  0  0
  2  7  1  0  0  0  0
  7  8  2  0  0  0  0
  2  9  1  0  0  0  0
  9 10  1  0  0  0  0
 10 11  2  0  0  0  0
 11 12  1  0  0  0  0
 12 13  1  0  0  0  0
  9 13  2  0  0  0  0
M  END
>  <Catalog ID>
Z954550826

>  <PlateID>
1198308-R-SPFL-17

>  <Well>
F03

>  <MW (desalted)>
196.226

>  <ClogP>
0.692

>  <HBD>
2

>  <TPSA>
58.200

>  <RotBonds>
1

$$$$

            

 14 15  0  0  0  0            999 V2000
    0.7145   -0.4125    0.0000 C   0  0  0  0  0  0  0  0  0  0  0  0
    0.7145   -1.2375    0.0000 C   0  0  0  0  0  0  0  0  0  0  0  0
    1.4289   -1.6500    0.0000 C   0  0  0  0  0  0  0  0  0  0  0  0
    1.4289   -2.4750    0.0000 C   0  0  0  0  0  0  0  0  0  0  0  0
    2.1434   -2.8875    0.0000 C   0  0  0  0  0  0  0  0  0  0  0  0
    0.7145   -2.8875    0.0000 N   0  0  0  0  0  0  0  0  0  0  0  0
    0.0000   -2.4750    0.0000 C   0  0  0  0  0  0  0  0  0  0  0  0
    0.0000   -1.6500    0.0000 N   0  0  0  0  0  0  0  0  0  0  0  0
   -0.7145   -2.8875    0.0000 N   0  0  0  0  0  0  0  0  0  0  0  0
   -0.7145   -3.7125    0.0000 C   0  0  0  0  0  0  0  0  0  0  0  0
   -1.4289   -4.1250    0.0000 C   0  0  0  0  0  0  0  0  0  0  0  0
   -2.1434   -3.7125    0.0000 S   0  0  0  0  0  0  0  0  0  0  0  0
   -2.1434   -2.8875    0.0000 C   0  0  0  0  0  0  0  0  0  0  0  0
   -1.4289   -2.4750    0.0000 C   0  0  0  0  0  0  0  0  0  0  0  0
  1  2  1  0  0  0  0
  2  3  2  0  0  0  0
  3  4  1  0  0  0  0
  4  5  1  0  0  0  0
  4  6  2  0  0  0  0
  6  7  1  0  0  0  0
  7  8  2  0  0  0  0
  2  8  1  0  0  0  0
  7  9  1  0  0  0  0
  9 10  1  0  0  0  0
 10 11  1  0  0  0  0
 11 12  1  0  0  0  0
 12 13  1  0  0  0  0
 13 14  1  0  0  0  0
  9 14  1  0  0  0  0
M  END
>  <Catalog ID>
Z645739560

>  <PlateID>
1198308-R-SPFL-17

>  <Well>
F04

>  <MW (desalted)>
209.311

>  <ClogP>
1.716

>  <HBD>
0

>  <TPSA>
29.020

>  <RotBonds>
1

$$$$

            

 14 15  0  0  0  0            999 V2000
    2.3183   -1.1364    0.0000 C   0  0  0  0  0  0  0  0  0  0  0  0
    2.3183   -1.9614    0.0000 C   0  0  0  0  0  0  0  0  0  0  0  0
    2.9858   -2.4463    0.0000 C   0  0  0  0  0  0  0  0  0  0  0  0
    2.7308   -3.2309    0.0000 C   0  0  0  0  0  0  0  0  0  0  0  0
    1.9058   -3.2309    0.0000 O   0  0  0  0  0  0  0  0  0  0  0  0
    1.6509   -2.4463    0.0000 N   0  0  0  0  0  0  0  0  0  0  0  0
    3.2158   -3.8983    0.0000 C   0  0  0  0  0  0  0  0  0  0  0  0
    2.8802   -4.6520    0.0000 O   0  0  0  0  0  0  0  0  0  0  0  0
    4.0362   -3.8121    0.0000 N   0  0  0  0  0  0  0  0  0  0  0  0
    4.5212   -4.4795    0.0000 C   0  0  0  0  0  0  0  0  0  0  0  0
    5.3462   -4.4795    0.0000 C   0  0  0  0  0  0  0  0  0  0  0  0
    5.6011   -5.2642    0.0000 C   0  0  0  0  0  0  0  0  0  0  0  0
    4.9337   -5.7491    0.0000 C   0  0  0  0  0  0  0  0  0  0  0  0
    4.2662   -5.2642    0.0000 C   0  0  0  0  0  0  0  0  0  0  0  0
  1  2  1  0  0  0  0
  2  3  1  0  0  0  0
  3  4  2  0  0  0  0
  4  5  1  0  0  0  0
  5  6  1  0  0  0  0
  2  6  2  0  0  0  0
  4  7  1  0  0  0  0
  7  8  2  0  0  0  0
  7  9  1  0  0  0  0
  9 10  1  0  0  0  0
 10 11  1  0  0  0  0
 11 12  1  0  0  0  0
 12 13  1  0  0  0  0
 13 14  1  0  0  0  0
 10 14  1  0  0  0  0
M  END
>  <Catalog ID>
Z135552256

>  <PlateID>
1198308-R-SPFL-17

>  <Well>
F05

>  <MW (desalted)>
194.230

>  <ClogP>
1.388

>  <HBD>
1

>  <TPSA>
55.130

>  <RotBonds>
2

$$$$

            

 14 15  0  0  0  0            999 V2000
    2.1434   -1.2375    0.0000 O   0  0  0  0  0  0  0  0  0  0  0  0
    1.4289   -1.6500    0.0000 C   0  0  0  0  0  0  0  0  0  0  0  0
    0.7145   -1.2375    0.0000 N   0  0  0  0  0  0  0  0  0  0  0  0
    0.7145   -0.4125    0.0000 C   0  0  0  0  0  0  0  0  0  0  0  0
    0.0000    0.0000    0.0000 N   0  0  0  0  0  0  0  0  0  0  0  0
    0.0000    0.8250    0.0000 C   0  0  0  0  0  0  0  0  0  0  0  0
    0.7145    1.2375    0.0000 C   0  0  0  0  0  0  0  0  0  0  0  0
    1.4289    0.8250    0.0000 C   0  0  0  0  0  0  0  0  0  0  0  0
    1.4289    0.0000    0.0000 N   0  0  0  0  0  0  0  0  0  0  0  0
    1.4289   -2.4750    0.0000 C   0  0  0  0  0  0  0  0  0  0  0  0
    2.0964   -2.9599    0.0000 C   0  0  0  0  0  0  0  0  0  0  0  0
    1.8414   -3.7445    0.0000 C   0  0  0  0  0  0  0  0  0  0  0  0
    1.0164   -3.7445    0.0000 C   0  0  0  0  0  0  0  0  0  0  0  0
    0.7615   -2.9599    0.0000 S   0  0  0  0  0  0  0  0  0  0  0  0
  1  2  2  0  0  0  0
  2  3  1  0  0  0  0
  3  4  1  0  0  0  0
  4  5  2  0  0  0  0
  5  6  1  0  0  0  0
  6  7  2  0  0  0  0
  7  8  1  0  0  0  0
  8  9  2  0  0  0  0
  4  9  1  0  0  0  0
  2 10  1  0  0  0  0
 10 11  2  0  0  0  0
 11 12  1  0  0  0  0
 12 13  2  0  0  0  0
 13 14  1  0  0  0  0
 10 14  1  0  0  0  0
M  END
>  <Catalog ID>
Z56760606

>  <PlateID>
1198308-R-SPFL-17

>  <Well>
F06

>  <MW (desalted)>
205.236

>  <ClogP>
0.425

>  <HBD>
1

>  <TPSA>
54.880

>  <RotBonds>
2

$$$$

            

 11 12  0  0  1  0            999 V2000
    1.2564   -0.1802    0.0000 O   0  0  0  0  0  0  0  0  0  0  0  0
    1.2564   -1.0052    0.0000 C   0  0  2  0  0  0  0  0  0  0  0  0
    1.9239   -1.4901    0.0000 C   0  0  0  0  0  0  0  0  0  0  0  0
    1.6689   -2.2748    0.0000 C   0  0  0  0  0  0  0  0  0  0  0  0
    0.8439   -2.2748    0.0000 C   0  0  0  0  0  0  0  0  0  0  0  0
    0.5890   -1.4901    0.0000 C   0  0  1  0  0  0  0  0  0  0  0  0
   -0.1956   -1.2352    0.0000 N   0  0  0  0  0  0  0  0  0  0  0  0
   -0.8631   -1.7201    0.0000 C   0  0  0  0  0  0  0  0  0  0  0  0
   -1.5305   -1.2352    0.0000 C   0  0  0  0  0  0  0  0  0  0  0  0
   -1.2756   -0.4506    0.0000 C   0  0  0  0  0  0  0  0  0  0  0  0
   -0.4506   -0.4506    0.0000 N   0  0  0  0  0  0  0  0  0  0  0  0
  2  1  1  6  0  0  0
  2  3  1  0  0  0  0
  3  4  1  0  0  0  0
  4  5  1  0  0  0  0
  6  5  1  0  0  0  0
  2  6  1  0  0  0  0
  6  7  1  1  0  0  0
  7  8  1  0  0  0  0
  8  9  2  0  0  0  0
  9 10  1  0  0  0  0
 10 11  2  0  0  0  0
  7 11  1  0  0  0  0
M  END
>  <Catalog ID>
Z1037336814

>  <PlateID>
1198308-R-SPFL-17

>  <Well>
F07

>  <MW (desalted)>
152.194

>  <ClogP>
0.408

>  <HBD>
1

>  <TPSA>
38.050

>  <RotBonds>
1

$$$$

            

 16 16  0  0  0  0            999 V2000
    0.0000    0.0000    0.0000 Cl  0  0  0  0  0  0  0  0  0  0  0  0
    2.0036    0.0000    0.0000 Cl  0  0  0  0  0  0  0  0  0  0  0  0
   -2.0275   -3.1895    0.0000 N   0  0  0  0  0  0  0  0  0  0  0  0
   -1.6150   -2.4750    0.0000 C   0  0  0  0  0  0  0  0  0  0  0  0
   -0.7900   -2.4750    0.0000 C   0  0  0  0  0  0  0  0  0  0  0  0
   -0.3051   -1.8076    0.0000 N   0  0  0  0  0  0  0  0  0  0  0  0
    0.4796   -2.0625    0.0000 C   0  0  0  0  0  0  0  0  0  0  0  0
    1.1940   -1.6500    0.0000 C   0  0  0  0  0  0  0  0  0  0  0  0
    1.9085   -2.0625    0.0000 C   0  0  0  0  0  0  0  0  0  0  0  0
    1.9085   -2.8875    0.0000 C   0  0  0  0  0  0  0  0  0  0  0  0
    1.1940   -3.3000    0.0000 C   0  0  0  0  0  0  0  0  0  0  0  0
    0.4796   -2.8875    0.0000 C   0  0  0  0  0  0  0  0  0  0  0  0
   -0.3051   -3.1424    0.0000 N   0  0  0  0  0  0  0  0  0  0  0  0
   -0.5600   -3.9271    0.0000 C   0  0  0  0  0  0  0  0  0  0  0  0
   -0.3885   -4.7340    0.0000 C   0  0  0  0  0  0  0  0  0  0  0  0
   -1.1731   -4.4791    0.0000 C   0  0  0  0  0  0  0  0  0  0  0  0
  3  4  1  0  0  0  0
  4  5  1  0  0  0  0
  5  6  2  0  0  0  0
  6  7  1  0  0  0  0
  7  8  2  0  0  0  0
  8  9  1  0  0  0  0
  9 10  2  0  0  0  0
 10 11  1  0  0  0  0
 11 12  2  0  0  0  0
  7 12  1  0  0  0  0
 12 13  1  0  0  0  0
  5 13  1  0  0  0  0
 13 14  1  0  0  0  0
 14 15  1  0  0  0  0
 15 16  1  0  0  0  0
 14 16  1  0  0  0  0
M  END
>  <Catalog ID>
Z4522216543

>  <PlateID>
1198308-R-SPFL-17

>  <Well>
F08

>  <MW (desalted)>
187.241

>  <ClogP>
1.117

>  <HBD>
1

>  <TPSA>
43.840

>  <RotBonds>
2

$$$$

            

 12 13  0  0  0  0            999 V2000
    1.4289   -2.4750    0.0000 F   0  0  0  0  0  0  0  0  0  0  0  0
    1.4289   -1.6500    0.0000 C   0  0  0  0  0  0  0  0  0  0  0  0
    0.7145   -1.2375    0.0000 C   0  0  0  0  0  0  0  0  0  0  0  0
    0.7145   -0.4125    0.0000 C   0  0  0  0  0  0  0  0  0  0  0  0
    1.4289    0.0000    0.0000 C   0  0  0  0  0  0  0  0  0  0  0  0
    2.1434   -0.4125    0.0000 C   0  0  0  0  0  0  0  0  0  0  0  0
    2.8579    0.0000    0.0000 N   0  0  0  0  0  0  0  0  0  0  0  0
    3.5724   -0.4125    0.0000 C   0  0  0  0  0  0  0  0  0  0  0  0
    4.2868   -0.0000    0.0000 O   0  0  0  0  0  0  0  0  0  0  0  0
    3.5724   -1.2375    0.0000 C   0  0  0  0  0  0  0  0  0  0  0  0
    2.8579   -1.6500    0.0000 N   0  0  0  0  0  0  0  0  0  0  0  0
    2.1434   -1.2375    0.0000 C   0  0  0  0  0  0  0  0  0  0  0  0
  1  2  1  0  0  0  0
  2  3  1  0  0  0  0
  3  4  2  0  0  0  0
  4  5  1  0  0  0  0
  5  6  2  0  0  0  0
  6  7  1  0  0  0  0
  7  8  1  0  0  0  0
  8  9  2  0  0  0  0
  8 10  1  0  0  0  0
 10 11  2  0  0  0  0
 11 12  1  0  0  0  0
  2 12  2  0  0  0  0
  6 12  1  0  0  0  0
M  END
>  <Catalog ID>
Z1255362600

>  <PlateID>
1198308-R-SPFL-17

>  <Well>
F09

>  <MW (desalted)>
164.137

>  <ClogP>
0.506

>  <HBD>
1

>  <TPSA>
41.460

>  <RotBonds>
0

$$$$

            

 13 12  0  0  0  0            999 V2000
    0.0000    0.0000    0.0000 Cl  0  0  0  0  0  0  0  0  0  0  0  0
    2.3571    2.3719    0.0000 N   0  0  0  0  0  0  0  0  0  0  0  0
    3.0716    1.9594    0.0000 C   0  0  0  0  0  0  0  0  0  0  0  0
    3.0716    1.1344    0.0000 C   0  0  0  0  0  0  0  0  0  0  0  0
    3.7861    0.7219    0.0000 C   0  0  0  0  0  0  0  0  0  0  0  0
    3.7861   -0.1031    0.0000 C   0  0  0  0  0  0  0  0  0  0  0  0
    3.0716   -0.5156    0.0000 C   0  0  0  0  0  0  0  0  0  0  0  0
    2.3571   -0.1031    0.0000 C   0  0  0  0  0  0  0  0  0  0  0  0
    2.3571    0.7219    0.0000 N   0  0  0  0  0  0  0  0  0  0  0  0
    3.0716   -1.3406    0.0000 C   0  0  0  0  0  0  0  0  0  0  0  0
    3.0716   -2.1656    0.0000 F   0  0  0  0  0  0  0  0  0  0  0  0
    2.2466   -1.3406    0.0000 F   0  0  0  0  0  0  0  0  0  0  0  0
    3.8966   -1.3406    0.0000 F   0  0  0  0  0  0  0  0  0  0  0  0
  2  3  1  0  0  0  0
  3  4  1  0  0  0  0
  4  5  2  0  0  0  0
  5  6  1  0  0  0  0
  6  7  2  0  0  0  0
  7  8  1  0  0  0  0
  8  9  2  0  0  0  0
  4  9  1  0  0  0  0
  7 10  1  0  0  0  0
 10 11  1  0  0  0  0
 10 12  1  0  0  0  0
 10 13  1  0  0  0  0
M  END
>  <Catalog ID>
Z3235024347

>  <PlateID>
1198308-R-SPFL-17

>  <Well>
F10

>  <MW (desalted)>
176.139

>  <ClogP>
0.627

>  <HBD>
1

>  <TPSA>
38.910

>  <RotBonds>
2

$$$$

            

 12 13  0  0  0  0            999 V2000
   -0.1712   -0.6979    0.0000 C   0  0  0  0  0  0  0  0  0  0  0  0
    0.6538   -0.6979    0.0000 C   0  0  0  0  0  0  0  0  0  0  0  0
    1.1387   -0.0305    0.0000 C   0  0  0  0  0  0  0  0  0  0  0  0
    1.9233   -0.2854    0.0000 C   0  0  0  0  0  0  0  0  0  0  0  0
    2.6378    0.1271    0.0000 C   0  0  0  0  0  0  0  0  0  0  0  0
    3.3523   -0.2854    0.0000 C   0  0  0  0  0  0  0  0  0  0  0  0
    3.3523   -1.1104    0.0000 C   0  0  0  0  0  0  0  0  0  0  0  0
    4.0668   -1.5229    0.0000 C   0  0  0  0  0  0  0  0  0  0  0  0
    4.7812   -1.9354    0.0000 N   0  0  0  0  0  0  0  0  0  0  0  0
    2.6378   -1.5229    0.0000 C   0  0  0  0  0  0  0  0  0  0  0  0
    1.9233   -1.1104    0.0000 C   0  0  0  0  0  0  0  0  0  0  0  0
    1.1387   -1.3654    0.0000 N   0  0  0  0  0  0  0  0  0  0  0  0
  1  2  1  0  0  0  0
  2  3  2  0  0  0  0
  3  4  1  0  0  0  0
  4  5  2  0  0  0  0
  5  6  1  0  0  0  0
  6  7  2  0  0  0  0
  7  8  1  0  0  0  0
  8  9  3  0  0  0  0
  7 10  1  0  0  0  0
 10 11  2  0  0  0  0
  4 11  1  0  0  0  0
 11 12  1  0  0  0  0
  2 12  1  0  0  0  0
M  END
>  <Catalog ID>
Z1198219270

>  <PlateID>
1198308-R-SPFL-17

>  <Well>
F11

>  <MW (desalted)>
156.184

>  <ClogP>
2.454

>  <HBD>
1

>  <TPSA>
39.580

>  <RotBonds>
0

$$$$

            

 11 11  0  0  0  0            999 V2000
    0.0000    2.4750    0.0000 C   0  0  0  0  0  0  0  0  0  0  0  0
    0.7145    2.0625    0.0000 O   0  0  0  0  0  0  0  0  0  0  0  0
    0.7145    1.2375    0.0000 C   0  0  0  0  0  0  0  0  0  0  0  0
    1.4289    0.8250    0.0000 C   0  0  0  0  0  0  0  0  0  0  0  0
    1.4289   -0.0000    0.0000 C   0  0  0  0  0  0  0  0  0  0  0  0
    0.7145   -0.4125    0.0000 C   0  0  0  0  0  0  0  0  0  0  0  0
    0.0000    0.0000    0.0000 C   0  0  0  0  0  0  0  0  0  0  0  0
    0.0000    0.8250    0.0000 C   0  0  0  0  0  0  0  0  0  0  0  0
    0.7145   -1.2375    0.0000 C   0  0  0  0  0  0  0  0  0  0  0  0
    1.4289   -1.6500    0.0000 O   0  0  0  0  0  0  0  0  0  0  0  0
   -0.0000   -1.6500    0.0000 N   0  0  0  0  0  0  0  0  0  0  0  0
  1  2  1  0  0  0  0
  2  3  1  0  0  0  0
  3  4  2  0  0  0  0
  4  5  1  0  0  0  0
  5  6  2  0  0  0  0
  6  7  1  0  0  0  0
  7  8  2  0  0  0  0
  3  8  1  0  0  0  0
  6  9  1  0  0  0  0
  9 10  2  0  0  0  0
  9 11  1  0  0  0  0
M  END
>  <Catalog ID>
Z33546492

>  <PlateID>
1198308-R-SPFL-17

>  <Well>
G02

>  <MW (desalted)>
151.163

>  <ClogP>
0.836

>  <HBD>
1

>  <TPSA>
52.320

>  <RotBonds>
2

$$$$

            

 16 17  0  0  0  0            999 V2000
    2.1434   -0.4125    0.0000 O   0  0  0  0  0  0  0  0  0  0  0  0
    2.1434   -1.2375    0.0000 C   0  0  0  0  0  0  0  0  0  0  0  0
    2.8579   -1.6500    0.0000 C   0  0  0  0  0  0  0  0  0  0  0  0
    2.8579   -2.4750    0.0000 C   0  0  0  0  0  0  0  0  0  0  0  0
    2.1434   -2.8875    0.0000 N   0  0  0  0  0  0  0  0  0  0  0  0
    2.1434   -3.7125    0.0000 C   0  0  0  0  0  0  0  0  0  0  0  0
    1.4289   -4.1250    0.0000 C   0  0  0  0  0  0  0  0  0  0  0  0
    1.4289   -4.9500    0.0000 C   0  0  0  0  0  0  0  0  0  0  0  0
    0.7145   -5.3625    0.0000 C   0  0  0  0  0  0  0  0  0  0  0  0
   -0.0000   -4.9500    0.0000 C   0  0  0  0  0  0  0  0  0  0  0  0
    0.0000   -4.1250    0.0000 C   0  0  0  0  0  0  0  0  0  0  0  0
   -0.7145   -3.7125    0.0000 F   0  0  0  0  0  0  0  0  0  0  0  0
    0.7145   -3.7125    0.0000 C   0  0  0  0  0  0  0  0  0  0  0  0
    0.7145   -2.8875    0.0000 F   0  0  0  0  0  0  0  0  0  0  0  0
    1.4289   -2.4750    0.0000 C   0  0  0  0  0  0  0  0  0  0  0  0
    1.4289   -1.6500    0.0000 C   0  0  0  0  0  0  0  0  0  0  0  0
  1  2  1  0  0  0  0
  2  3  1  0  0  0  0
  3  4  1  0  0  0  0
  4  5  1  0  0  0  0
  5  6  1  0  0  0  0
  6  7  1  0  0  0  0
  7  8  2  0  0  0  0
  8  9  1  0  0  0  0
  9 10  2  0  0  0  0
 10 11  1  0  0  0  0
 11 12  1  0  0  0  0
 11 13  2  0  0  0  0
  7 13  1  0  0  0  0
 13 14  1  0  0  0  0
  5 15  1  0  0  0  0
 15 16  1  0  0  0  0
  2 16  1  0  0  0  0
M  END
>  <Catalog ID>
Z125403766

>  <PlateID>
1198308-R-SPFL-17

>  <Well>
G03

>  <MW (desalted)>
227.250

>  <ClogP>
1.298

>  <HBD>
1

>  <TPSA>
23.470

>  <RotBonds>
2

$$$$

            

 16 17  0  0  0  0            999 V2000
    1.4289   -1.6500    0.0000 C   0  0  0  0  0  0  0  0  0  0  0  0
    1.4289   -2.4750    0.0000 C   0  0  0  0  0  0  0  0  0  0  0  0
    2.1434   -2.8875    0.0000 C   0  0  0  0  0  0  0  0  0  0  0  0
    2.1434   -3.7125    0.0000 C   0  0  0  0  0  0  0  0  0  0  0  0
    2.8579   -4.1250    0.0000 F   0  0  0  0  0  0  0  0  0  0  0  0
    1.4289   -4.1250    0.0000 C   0  0  0  0  0  0  0  0  0  0  0  0
    0.7145   -3.7125    0.0000 C   0  0  0  0  0  0  0  0  0  0  0  0
    0.7145   -2.8875    0.0000 C   0  0  0  0  0  0  0  0  0  0  0  0
    0.0000   -2.4750    0.0000 C   0  0  0  0  0  0  0  0  0  0  0  0
   -0.7145   -2.8875    0.0000 N   0  0  0  0  0  0  0  0  0  0  0  0
   -1.4289   -2.4750    0.0000 C   0  0  0  0  0  0  0  0  0  0  0  0
   -2.1434   -2.8875    0.0000 C   0  0  0  0  0  0  0  0  0  0  0  0
   -2.8579   -2.4750    0.0000 N   0  0  0  0  0  0  0  0  0  0  0  0
   -2.8579   -1.6500    0.0000 C   0  0  0  0  0  0  0  0  0  0  0  0
   -2.1434   -1.2375    0.0000 C   0  0  0  0  0  0  0  0  0  0  0  0
   -1.4289   -1.6500    0.0000 N   0  0  0  0  0  0  0  0  0  0  0  0
  1  2  1  0  0  0  0
  2  3  2  0  0  0  0
  3  4  1  0  0  0  0
  4  5  1  0  0  0  0
  4  6  2  0  0  0  0
  6  7  1  0  0  0  0
  7  8  2  0  0  0  0
  2  8  1  0  0  0  0
  8  9  1  0  0  0  0
  9 10  1  0  0  0  0
 10 11  1  0  0  0  0
 11 12  2  0  0  0  0
 12 13  1  0  0  0  0
 13 14  2  0  0  0  0
 14 15  1  0  0  0  0
 15 16  2  0  0  0  0
 11 16  1  0  0  0  0
M  END
>  <Catalog ID>
Z1824067199

>  <PlateID>
1198308-R-SPFL-17

>  <Well>
G04

>  <MW (desalted)>
217.242

>  <ClogP>
2.539

>  <HBD>
1

>  <TPSA>
37.810

>  <RotBonds>
3

$$$$

            

 16 16  0  0  0  0            999 V2000
    0.0000    0.0000    0.0000 I   0  0  0  0  0  0  0  0  0  0  0  0
    6.6440    0.9625    0.0000 Cl  0  0  0  0  0  0  0  0  0  0  0  0
    6.6440    0.1375    0.0000 C   0  0  0  0  0  0  0  0  0  0  0  0
    7.3584   -0.2750    0.0000 C   0  0  0  0  0  0  0  0  0  0  0  0
    7.3584   -1.1000    0.0000 C   0  0  0  0  0  0  0  0  0  0  0  0
    6.6440   -1.5125    0.0000 C   0  0  0  0  0  0  0  0  0  0  0  0
    5.9295   -1.1000    0.0000 C   0  0  0  0  0  0  0  0  0  0  0  0
    5.9295   -0.2750    0.0000 C   0  0  0  0  0  0  0  0  0  0  0  0
    5.2150    0.1375    0.0000 C   0  0  0  0  0  0  0  0  0  0  0  0
    4.5006   -0.2750    0.0000 N   0  0  0  0  0  0  0  0  0  0  0  0
    3.7861    0.1375    0.0000 C   0  0  0  0  0  0  0  0  0  0  0  0
    3.0716   -0.2750    0.0000 N   0  0  0  0  0  0  0  0  0  0  0  0
    2.3571    0.1375    0.0000 C   0  0  0  0  0  0  0  0  0  0  0  0
    2.3571    0.9625    0.0000 C   0  0  0  0  0  0  0  0  0  0  0  0
    3.0716    1.3750    0.0000 C   0  0  0  0  0  0  0  0  0  0  0  0
    3.7861    0.9625    0.0000 N   0  0  0  0  0  0  0  0  0  0  0  0
  2  3  1  0  0  0  0
  3  4  2  0  0  0  0
  4  5  1  0  0  0  0
  5  6  2  0  0  0  0
  6  7  1  0  0  0  0
  7  8  2  0  0  0  0
  3  8  1  0  0  0  0
  8  9  1  0  0  0  0
  9 10  1  0  0  0  0
 10 11  1  0  0  0  0
 11 12  2  0  0  0  0
 12 13  1  0  0  0  0
 13 14  1  0  0  0  0
 14 15  1  0  0  0  0
 15 16  1  0  0  0  0
 11 16  1  0  0  0  0
M  END
>  <Catalog ID>
Z1089995250

>  <PlateID>
1198308-R-SPFL-17

>  <Well>
G05

>  <MW (desalted)>
223.702

>  <ClogP>
2.557

>  <HBD>
2

>  <TPSA>
36.420

>  <RotBonds>
2

$$$$

            

 13 14  0  0  0  0            999 V2000
    0.7145   -0.4125    0.0000 N   0  0  0  0  0  0  0  0  0  0  0  0
    0.7145   -1.2375    0.0000 C   0  0  0  0  0  0  0  0  0  0  0  0
    1.4289   -1.6500    0.0000 C   0  0  0  0  0  0  0  0  0  0  0  0
    1.4289   -2.4750    0.0000 C   0  0  0  0  0  0  0  0  0  0  0  0
    0.7145   -2.8875    0.0000 C   0  0  0  0  0  0  0  0  0  0  0  0
    0.0000   -2.4750    0.0000 N   0  0  0  0  0  0  0  0  0  0  0  0
    0.0000   -1.6500    0.0000 N   0  0  0  0  0  0  0  0  0  0  0  0
    0.7145   -3.7125    0.0000 C   0  0  0  0  0  0  0  0  0  0  0  0
    1.4289   -4.1250    0.0000 C   0  0  0  0  0  0  0  0  0  0  0  0
    1.4289   -4.9500    0.0000 C   0  0  0  0  0  0  0  0  0  0  0  0
    0.7145   -5.3625    0.0000 C   0  0  0  0  0  0  0  0  0  0  0  0
    0.0000   -4.9500    0.0000 C   0  0  0  0  0  0  0  0  0  0  0  0
    0.0000   -4.1250    0.0000 C   0  0  0  0  0  0  0  0  0  0  0  0
  1  2  1  0  0  0  0
  2  3  2  0  0  0  0
  3  4  1  0  0  0  0
  4  5  2  0  0  0  0
  5  6  1  0  0  0  0
  6  7  2  0  0  0  0
  2  7  1  0  0  0  0
  5  8  1  0  0  0  0
  8  9  2  0  0  0  0
  9 10  1  0  0  0  0
 10 11  2  0  0  0  0
 11 12  1  0  0  0  0
 12 13  2  0  0  0  0
  8 13  1  0  0  0  0
M  END
>  <Catalog ID>
Z600584210

>  <PlateID>
1198308-R-SPFL-17

>  <Well>
G06

>  <MW (desalted)>
171.199

>  <ClogP>
1.639

>  <HBD>
1

>  <TPSA>
51.800

>  <RotBonds>
1

$$$$

            

 12 10  0  0  0  0            999 V2000
    0.0000    0.0000    0.0000 Cl  0  0  0  0  0  0  0  0  0  0  0  0
    2.0036    0.0000    0.0000 Cl  0  0  0  0  0  0  0  0  0  0  0  0
    0.5184   -1.6500    0.0000 C   0  0  0  0  0  0  0  0  0  0  0  0
    0.5184   -2.4750    0.0000 C   0  0  0  0  0  0  0  0  0  0  0  0
    1.2329   -2.8875    0.0000 C   0  0  0  0  0  0  0  0  0  0  0  0
   -0.1960   -2.8875    0.0000 N   0  0  0  0  0  0  0  0  0  0  0  0
   -0.1960   -3.7125    0.0000 C   0  0  0  0  0  0  0  0  0  0  0  0
    0.4714   -4.1974    0.0000 C   0  0  0  0  0  0  0  0  0  0  0  0
    0.2165   -4.9820    0.0000 N   0  0  0  0  0  0  0  0  0  0  0  0
   -0.6085   -4.9820    0.0000 N   0  0  0  0  0  0  0  0  0  0  0  0
   -1.0935   -5.6495    0.0000 C   0  0  0  0  0  0  0  0  0  0  0  0
   -0.8635   -4.1974    0.0000 C   0  0  0  0  0  0  0  0  0  0  0  0
  3  4  1  0  0  0  0
  4  5  1  0  0  0  0
  4  6  1  0  0  0  0
  6  7  1  0  0  0  0
  7  8  1  0  0  0  0
  8  9  2  0  0  0  0
  9 10  1  0  0  0  0
 10 11  1  0  0  0  0
 10 12  1  0  0  0  0
  7 12  2  0  0  0  0
M  END
>  <Catalog ID>
Z1262327476

>  <PlateID>
1198308-R-SPFL-17

>  <Well>
G07

>  <MW (desalted)>
139.198

>  <ClogP>
1.071

>  <HBD>
1

>  <TPSA>
29.850

>  <RotBonds>
2

$$$$

            

 15 14  0  0  0  0            999 V2000
    0.0000    0.0000    0.0000 Cl  0  0  0  0  0  0  0  0  0  0  0  0
    2.0036    0.0000    0.0000 Cl  0  0  0  0  0  0  0  0  0  0  0  0
   -0.3298   -4.9500    0.0000 C   0  0  0  0  0  0  0  0  0  0  0  0
   -0.3298   -4.1250    0.0000 C   0  0  0  0  0  0  0  0  0  0  0  0
   -1.0442   -3.7125    0.0000 N   0  0  0  0  0  0  0  0  0  0  0  0
   -1.0442   -2.8875    0.0000 C   0  0  0  0  0  0  0  0  0  0  0  0
   -1.7587   -2.4750    0.0000 C   0  0  0  0  0  0  0  0  0  0  0  0
   -1.7587   -1.6500    0.0000 N   0  0  0  0  0  0  0  0  0  0  0  0
   -0.3298   -2.4750    0.0000 N   0  0  0  0  0  0  0  0  0  0  0  0
    0.3847   -2.8875    0.0000 C   0  0  0  0  0  0  0  0  0  0  0  0
    1.0992   -2.4750    0.0000 C   0  0  0  0  0  0  0  0  0  0  0  0
    1.8137   -2.8875    0.0000 C   0  0  0  0  0  0  0  0  0  0  0  0
    1.8137   -3.7125    0.0000 C   0  0  0  0  0  0  0  0  0  0  0  0
    1.0992   -4.1250    0.0000 C   0  0  0  0  0  0  0  0  0  0  0  0
    0.3847   -3.7125    0.0000 C   0  0  0  0  0  0  0  0  0  0  0  0
  3  4  1  0  0  0  0
  4  5  2  0  0  0  0
  5  6  1  0  0  0  0
  6  7  1  0  0  0  0
  7  8  1  0  0  0  0
  6  9  2  0  0  0  0
  9 10  1  0  0  0  0
 10 11  2  0  0  0  0
 11 12  1  0  0  0  0
 12 13  2  0  0  0  0
 13 14  1  0  0  0  0
 14 15  2  0  0  0  0
  4 15  1  0  0  0  0
 10 15  1  0  0  0  0
M  END
>  <Catalog ID>
Z1398461939

>  <PlateID>
1198308-R-SPFL-17

>  <Well>
G08

>  <MW (desalted)>
173.214

>  <ClogP>
0.523

>  <HBD>
1

>  <TPSA>
51.800

>  <RotBonds>
1

$$$$

            

 10 11  0  0  0  0            999 V2000
    0.7145   -0.4125    0.0000 C   0  0  0  0  0  0  0  0  0  0  0  0
    1.4289    0.0000    0.0000 C   0  0  0  0  0  0  0  0  0  0  0  0
    2.1434   -0.4125    0.0000 C   0  0  0  0  0  0  0  0  0  0  0  0
    2.8579    0.0000    0.0000 C   0  0  0  0  0  0  0  0  0  0  0  0
    3.5724   -0.4125    0.0000 C   0  0  0  0  0  0  0  0  0  0  0  0
    3.5724   -1.2375    0.0000 N   0  0  0  0  0  0  0  0  0  0  0  0
    2.8579   -1.6500    0.0000 C   0  0  0  0  0  0  0  0  0  0  0  0
    2.1434   -1.2375    0.0000 C   0  0  0  0  0  0  0  0  0  0  0  0
    1.4289   -1.6500    0.0000 C   0  0  0  0  0  0  0  0  0  0  0  0
    0.7145   -1.2375    0.0000 N   0  0  0  0  0  0  0  0  0  0  0  0
  1  2  2  0  0  0  0
  2  3  1  0  0  0  0
  3  4  2  0  0  0  0
  4  5  1  0  0  0  0
  5  6  2  0  0  0  0
  6  7  1  0  0  0  0
  7  8  2  0  0  0  0
  3  8  1  0  0  0  0
  8  9  1  0  0  0  0
  9 10  2  0  0  0  0
  1 10  1  0  0  0  0
M  END
>  <Catalog ID>
Z1198151519

>  <PlateID>
1198308-R-SPFL-17

>  <Well>
G09

>  <MW (desalted)>
130.147

>  <ClogP>
0.727

>  <HBD>
0

>  <TPSA>
25.780

>  <RotBonds>
0

$$$$

            

 11 11  0  0  0  0            999 V2000
    0.7145    2.8875    0.0000 C   0  0  0  0  0  0  0  0  0  0  0  0
    0.7145    2.0625    0.0000 P   0  0  0  0  0  0  0  0  0  0  0  0
   -0.1105    2.0625    0.0000 O   0  0  0  0  0  0  0  0  0  0  0  0
    1.5395    2.0625    0.0000 C   0  0  0  0  0  0  0  0  0  0  0  0
    0.7145    1.2375    0.0000 C   0  0  0  0  0  0  0  0  0  0  0  0
    1.4289    0.8250    0.0000 C   0  0  0  0  0  0  0  0  0  0  0  0
    1.4289   -0.0000    0.0000 C   0  0  0  0  0  0  0  0  0  0  0  0
    0.7145   -0.4125    0.0000 C   0  0  0  0  0  0  0  0  0  0  0  0
    0.0000    0.0000    0.0000 N   0  0  0  0  0  0  0  0  0  0  0  0
    0.0000    0.8250    0.0000 C   0  0  0  0  0  0  0  0  0  0  0  0
   -0.7145    1.2375    0.0000 N   0  0  0  0  0  0  0  0  0  0  0  0
  1  2  1  0  0  0  0
  2  3  2  0  0  0  0
  2  4  1  0  0  0  0
  2  5  1  0  0  0  0
  5  6  2  0  0  0  0
  6  7  1  0  0  0  0
  7  8  2  0  0  0  0
  8  9  1  0  0  0  0
  9 10  2  0  0  0  0
  5 10  1  0  0  0  0
 10 11  1  0  0  0  0
M  END
>  <Catalog ID>
Z3988723068

>  <PlateID>
1198308-R-SPFL-17

>  <Well>
G10

>  <MW (desalted)>
170.149

>  <ClogP>
-2.312

>  <HBD>
1

>  <TPSA>
55.980

>  <RotBonds>
1

$$$$

            

 14 15  0  0  0  0            999 V2000
    2.1434   -1.2375    0.0000 O   0  0  0  0  0  0  0  0  0  0  0  0
    1.4289   -1.6500    0.0000 C   0  0  0  0  0  0  0  0  0  0  0  0
    0.7145   -1.2375    0.0000 N   0  0  0  0  0  0  0  0  0  0  0  0
    0.7145   -0.4125    0.0000 C   0  0  0  0  0  0  0  0  0  0  0  0
    0.0000    0.0000    0.0000 C   0  0  0  0  0  0  0  0  0  0  0  0
    0.0000    0.8250    0.0000 C   0  0  0  0  0  0  0  0  0  0  0  0
    0.7145    1.2375    0.0000 C   0  0  0  0  0  0  0  0  0  0  0  0
    1.4289    0.8250    0.0000 C   0  0  0  0  0  0  0  0  0  0  0  0
    1.4289    0.0000    0.0000 C   0  0  0  0  0  0  0  0  0  0  0  0
    1.4289   -2.4750    0.0000 N   0  0  0  0  0  0  0  0  0  0  0  0
    2.0964   -2.9599    0.0000 C   0  0  0  0  0  0  0  0  0  0  0  0
    1.8414   -3.7445    0.0000 C   0  0  0  0  0  0  0  0  0  0  0  0
    1.0164   -3.7445    0.0000 C   0  0  0  0  0  0  0  0  0  0  0  0
    0.7615   -2.9599    0.0000 C   0  0  0  0  0  0  0  0  0  0  0  0
  1  2  2  0  0  0  0
  2  3  1  0  0  0  0
  3  4  1  0  0  0  0
  4  5  2  0  0  0  0
  5  6  1  0  0  0  0
  6  7  2  0  0  0  0
  7  8  1  0  0  0  0
  8  9  2  0  0  0  0
  4  9  1  0  0  0  0
  2 10  1  0  0  0  0
 10 11  1  0  0  0  0
 11 12  1  0  0  0  0
 12 13  1  0  0  0  0
 13 14  1  0  0  0  0
 10 14  1  0  0  0  0
M  END
>  <Catalog ID>
Z44585777

>  <PlateID>
1198308-R-SPFL-17

>  <Well>
G11

>  <MW (desalted)>
190.242

>  <ClogP>
1.291

>  <HBD>
1

>  <TPSA>
32.340

>  <RotBonds>
1

$$$$

            

 12 12  0  0  0  0            999 V2000
    1.9967    3.5893    0.0000 C   0  0  0  0  0  0  0  0  0  0  0  0
    1.2822    3.1768    0.0000 C   0  0  0  0  0  0  0  0  0  0  0  0
    0.5678    3.5893    0.0000 C   0  0  0  0  0  0  0  0  0  0  0  0
    1.2822    2.3518    0.0000 C   0  0  0  0  0  0  0  0  0  0  0  0
    1.9967    1.9393    0.0000 O   0  0  0  0  0  0  0  0  0  0  0  0
    0.5678    1.9393    0.0000 N   0  0  0  0  0  0  0  0  0  0  0  0
    0.5678    1.1143    0.0000 C   0  0  0  0  0  0  0  0  0  0  0  0
    1.2352    0.6294    0.0000 N   0  0  0  0  0  0  0  0  0  0  0  0
    0.9803   -0.1553    0.0000 N   0  0  0  0  0  0  0  0  0  0  0  0
    0.1553   -0.1553    0.0000 C   0  0  0  0  0  0  0  0  0  0  0  0
   -0.3297   -0.8227    0.0000 C   0  0  0  0  0  0  0  0  0  0  0  0
   -0.0997    0.6294    0.0000 S   0  0  0  0  0  0  0  0  0  0  0  0
  1  2  1  0  0  0  0
  2  3  1  0  0  0  0
  2  4  1  0  0  0  0
  4  5  2  0  0  0  0
  4  6  1  0  0  0  0
  6  7  1  0  0  0  0
  7  8  2  0  0  0  0
  8  9  1  0  0  0  0
  9 10  2  0  0  0  0
 10 11  1  0  0  0  0
 10 12  1  0  0  0  0
  7 12  1  0  0  0  0
M  END
>  <Catalog ID>
Z29672805

>  <PlateID>
1198308-R-SPFL-17

>  <Well>
H02

>  <MW (desalted)>
185.247

>  <ClogP>
1.017

>  <HBD>
1

>  <TPSA>
54.880

>  <RotBonds>
2

$$$$

            

 13 14  0  0  0  0            999 V2000
    4.0668    2.3479    0.0000 C   0  0  0  0  0  0  0  0  0  0  0  0
    3.3523    1.9354    0.0000 C   0  0  0  0  0  0  0  0  0  0  0  0
    3.3523    1.1104    0.0000 C   0  0  0  0  0  0  0  0  0  0  0  0
    2.6378    0.6979    0.0000 C   0  0  0  0  0  0  0  0  0  0  0  0
    1.9233    1.1104    0.0000 N   0  0  0  0  0  0  0  0  0  0  0  0
    1.1387    0.8555    0.0000 C   0  0  0  0  0  0  0  0  0  0  0  0
    0.6538    1.5229    0.0000 C   0  0  0  0  0  0  0  0  0  0  0  0
    1.1387    2.1904    0.0000 N   0  0  0  0  0  0  0  0  0  0  0  0
    1.9233    1.9354    0.0000 C   0  0  0  0  0  0  0  0  0  0  0  0
    2.6378    2.3479    0.0000 C   0  0  0  0  0  0  0  0  0  0  0  0
   -0.1712    1.5229    0.0000 C   0  0  0  0  0  0  0  0  0  0  0  0
   -0.5837    0.8085    0.0000 O   0  0  0  0  0  0  0  0  0  0  0  0
   -0.5837    2.2374    0.0000 N   0  0  0  0  0  0  0  0  0  0  0  0
  1  2  1  0  0  0  0
  2  3  1  0  0  0  0
  3  4  2  0  0  0  0
  4  5  1  0  0  0  0
  5  6  1  0  0  0  0
  6  7  2  0  0  0  0
  7  8  1  0  0  0  0
  8  9  2  0  0  0  0
  5  9  1  0  0  0  0
  9 10  1  0  0  0  0
  2 10  2  0  0  0  0
  7 11  1  0  0  0  0
 11 12  2  0  0  0  0
 11 13  1  0  0  0  0
M  END
>  <Catalog ID>
Z135897658

>  <PlateID>
1198308-R-SPFL-17

>  <Well>
H03

>  <MW (desalted)>
175.187

>  <ClogP>
1.381

>  <HBD>
1

>  <TPSA>
60.390

>  <RotBonds>
1

$$$$

            

 12 12  0  0  0  0            999 V2000
    1.9967    3.5893    0.0000 C   0  0  0  0  0  0  0  0  0  0  0  0
    1.2822    3.1768    0.0000 C   0  0  0  0  0  0  0  0  0  0  0  0
    0.5678    3.5893    0.0000 C   0  0  0  0  0  0  0  0  0  0  0  0
    1.2822    2.3518    0.0000 N   0  0  0  0  0  0  0  0  0  0  0  0
    0.5678    1.9393    0.0000 C   0  0  0  0  0  0  0  0  0  0  0  0
   -0.1467    2.3518    0.0000 O   0  0  0  0  0  0  0  0  0  0  0  0
    0.5678    1.1143    0.0000 C   0  0  0  0  0  0  0  0  0  0  0  0
    1.2352    0.6294    0.0000 C   0  0  0  0  0  0  0  0  0  0  0  0
    0.9803   -0.1553    0.0000 N   0  0  0  0  0  0  0  0  0  0  0  0
    0.1553   -0.1553    0.0000 C   0  0  0  0  0  0  0  0  0  0  0  0
   -0.3297   -0.8227    0.0000 C   0  0  0  0  0  0  0  0  0  0  0  0
   -0.0997    0.6294    0.0000 S   0  0  0  0  0  0  0  0  0  0  0  0
  1  2  1  0  0  0  0
  2  3  1  0  0  0  0
  2  4  1  0  0  0  0
  4  5  1  0  0  0  0
  5  6  2  0  0  0  0
  5  7  1  0  0  0  0
  7  8  2  0  0  0  0
  8  9  1  0  0  0  0
  9 10  2  0  0  0  0
 10 11  1  0  0  0  0
 10 12  1  0  0  0  0
  7 12  1  0  0  0  0
M  END
>  <Catalog ID>
Z916759702

>  <PlateID>
1198308-R-SPFL-17

>  <Well>
H04

>  <MW (desalted)>
184.259

>  <ClogP>
1.302

>  <HBD>
1

>  <TPSA>
41.990

>  <RotBonds>
2

$$$$

            

 15 16  0  0  0  0            999 V2000
    0.7145   -0.4125    0.0000 C   0  0  0  0  0  0  0  0  0  0  0  0
    0.7145   -1.2375    0.0000 C   0  0  0  0  0  0  0  0  0  0  0  0
    1.4289   -1.6500    0.0000 C   0  0  0  0  0  0  0  0  0  0  0  0
    1.4289   -2.4750    0.0000 C   0  0  0  0  0  0  0  0  0  0  0  0
    0.7145   -2.8875    0.0000 C   0  0  0  0  0  0  0  0  0  0  0  0
    0.0000   -2.4750    0.0000 C   0  0  0  0  0  0  0  0  0  0  0  0
    0.0000   -1.6500    0.0000 C   0  0  0  0  0  0  0  0  0  0  0  0
   -0.7145   -1.2375    0.0000 C   0  0  0  0  0  0  0  0  0  0  0  0
   -1.4289   -1.6500    0.0000 C   0  0  0  0  0  0  0  0  0  0  0  0
   -2.1434   -1.2375    0.0000 C   0  0  0  0  0  0  0  0  0  0  0  0
   -2.8579   -1.6500    0.0000 O   0  0  0  0  0  0  0  0  0  0  0  0
   -2.1434   -0.4125    0.0000 N   0  0  0  0  0  0  0  0  0  0  0  0
   -1.4289    0.0000    0.0000 C   0  0  0  0  0  0  0  0  0  0  0  0
   -1.4289    0.8250    0.0000 O   0  0  0  0  0  0  0  0  0  0  0  0
   -0.7145   -0.4125    0.0000 N   0  0  0  0  0  0  0  0  0  0  0  0
  1  2  1  0  0  0  0
  2  3  2  0  0  0  0
  3  4  1  0  0  0  0
  4  5  2  0  0  0  0
  5  6  1  0  0  0  0
  6  7  2  0  0  0  0
  2  7  1  0  0  0  0
  7  8  1  0  0  0  0
  8  9  1  0  0  0  0
  9 10  1  0  0  0  0
 10 11  2  0  0  0  0
 10 12  1  0  0  0  0
 12 13  1  0  0  0  0
 13 14  2  0  0  0  0
 13 15  1  0  0  0  0
  8 15  1  0  0  0  0
M  END
>  <Catalog ID>
Z1509174300

>  <PlateID>
1198308-R-SPFL-17

>  <Well>
H05

>  <MW (desalted)>
204.225

>  <ClogP>
1.385

>  <HBD>
2

>  <TPSA>
58.200

>  <RotBonds>
1

$$$$

            

 10 10  0  0  0  0            999 V2000
    0.5678    1.9393    0.0000 C   0  0  0  0  0  0  0  0  0  0  0  0
    0.5678    1.1143    0.0000 C   0  0  0  0  0  0  0  0  0  0  0  0
    1.2352    0.6294    0.0000 C   0  0  0  0  0  0  0  0  0  0  0  0
    0.9803   -0.1553    0.0000 C   0  0  0  0  0  0  0  0  0  0  0  0
    0.1553   -0.1553    0.0000 C   0  0  0  0  0  0  0  0  0  0  0  0
   -0.3297   -0.8227    0.0000 C   0  0  0  0  0  0  0  0  0  0  0  0
   -1.1501   -0.7365    0.0000 C   0  0  0  0  0  0  0  0  0  0  0  0
   -1.6351   -1.4039    0.0000 O   0  0  0  0  0  0  0  0  0  0  0  0
   -1.4857    0.0172    0.0000 O   0  0  0  0  0  0  0  0  0  0  0  0
   -0.0997    0.6294    0.0000 O   0  0  0  0  0  0  0  0  0  0  0  0
  1  2  1  0  0  0  0
  2  3  2  0  0  0  0
  3  4  1  0  0  0  0
  4  5  2  0  0  0  0
  5  6  1  0  0  0  0
  6  7  1  0  0  0  0
  7  8  2  0  0  0  0
  7  9  1  0  0  0  0
  5 10  1  0  0  0  0
  2 10  1  0  0  0  0
M  END
>  <Catalog ID>
Z978942572

>  <PlateID>
1198308-R-SPFL-17

>  <Well>
H06

>  <MW (desalted)>
140.137

>  <ClogP>
1.089

>  <HBD>
1

>  <TPSA>
50.440

>  <RotBonds>
2

$$$$

            

 11 12  0  0  0  0            999 V2000
    4.0668    2.3479    0.0000 C   0  0  0  0  0  0  0  0  0  0  0  0
    3.3523    1.9354    0.0000 C   0  0  0  0  0  0  0  0  0  0  0  0
    3.3523    1.1104    0.0000 C   0  0  0  0  0  0  0  0  0  0  0  0
    2.6378    0.6979    0.0000 C   0  0  0  0  0  0  0  0  0  0  0  0
    2.6378   -0.1271    0.0000 O   0  0  0  0  0  0  0  0  0  0  0  0
    1.9233    1.1104    0.0000 N   0  0  0  0  0  0  0  0  0  0  0  0
    1.1387    0.8555    0.0000 C   0  0  0  0  0  0  0  0  0  0  0  0
    0.6538    1.5229    0.0000 C   0  0  0  0  0  0  0  0  0  0  0  0
    1.1387    2.1904    0.0000 N   0  0  0  0  0  0  0  0  0  0  0  0
    1.9233    1.9354    0.0000 C   0  0  0  0  0  0  0  0  0  0  0  0
    2.6378    2.3479    0.0000 N   0  0  0  0  0  0  0  0  0  0  0  0
  1  2  1  0  0  0  0
  2  3  2  0  0  0  0
  3  4  1  0  0  0  0
  4  5  2  0  0  0  0
  4  6  1  0  0  0  0
  6  7  1  0  0  0  0
  7  8  2  0  0  0  0
  8  9  1  0  0  0  0
  9 10  1  0  0  0  0
  6 10  1  0  0  0  0
 10 11  2  0  0  0  0
  2 11  1  0  0  0  0
M  END
>  <Catalog ID>
Z2050688101

>  <PlateID>
1198308-R-SPFL-17

>  <Well>
H07

>  <MW (desalted)>
149.150

>  <ClogP>
0.022

>  <HBD>
1

>  <TPSA>
44.700

>  <RotBonds>
0

$$$$

            

 13 12  0  0  0  0            999 V2000
    0.0000    0.0000    0.0000 Cl  0  0  0  0  0  0  0  0  0  0  0  0
    2.0036    0.0000    0.0000 Cl  0  0  0  0  0  0  0  0  0  0  0  0
   -0.9478   -1.6500    0.0000 C   0  0  0  0  0  0  0  0  0  0  0  0
   -0.4629   -2.3174    0.0000 C   0  0  0  0  0  0  0  0  0  0  0  0
    0.3621   -2.3174    0.0000 C   0  0  0  0  0  0  0  0  0  0  0  0
    0.6170   -3.1021    0.0000 C   0  0  0  0  0  0  0  0  0  0  0  0
    1.4016   -3.3570    0.0000 C   0  0  0  0  0  0  0  0  0  0  0  0
   -0.0504   -3.5870    0.0000 N   0  0  0  0  0  0  0  0  0  0  0  0
   -0.7179   -3.1021    0.0000 N   0  0  0  0  0  0  0  0  0  0  0  0
   -0.0504   -4.4120    0.0000 C   0  0  0  0  0  0  0  0  0  0  0  0
    0.5329   -4.9953    0.0000 C   0  0  0  0  0  0  0  0  0  0  0  0
   -0.0504   -5.5787    0.0000 N   0  0  0  0  0  0  0  0  0  0  0  0
   -0.6338   -4.9953    0.0000 C   0  0  0  0  0  0  0  0  0  0  0  0
  3  4  1  0  0  0  0
  4  5  1  0  0  0  0
  5  6  2  0  0  0  0
  6  7  1  0  0  0  0
  6  8  1  0  0  0  0
  8  9  1  0  0  0  0
  4  9  2  0  0  0  0
  8 10  1  0  0  0  0
 10 11  1  0  0  0  0
 11 12  1  0  0  0  0
 12 13  1  0  0  0  0
 10 13  1  0  0  0  0
M  END
>  <Catalog ID>
Z1267773754

>  <PlateID>
1198308-R-SPFL-17

>  <Well>
H08

>  <MW (desalted)>
151.209

>  <ClogP>
0.327

>  <HBD>
1

>  <TPSA>
29.850

>  <RotBonds>
1

$$$$

            

 15 16  0  0  0  0            999 V2000
    0.7145   -0.4125    0.0000 N   0  0  0  0  0  0  0  0  0  0  0  0
    0.7145   -1.2375    0.0000 C   0  0  0  0  0  0  0  0  0  0  0  0
    1.4289   -1.6500    0.0000 C   0  0  0  0  0  0  0  0  0  0  0  0
    1.4289   -2.4750    0.0000 C   0  0  0  0  0  0  0  0  0  0  0  0
    0.7145   -2.8875    0.0000 N   0  0  0  0  0  0  0  0  0  0  0  0
    0.0000   -2.4750    0.0000 C   0  0  0  0  0  0  0  0  0  0  0  0
    0.0000   -1.6500    0.0000 C   0  0  0  0  0  0  0  0  0  0  0  0
   -0.7145   -1.2375    0.0000 C   0  0  0  0  0  0  0  0  0  0  0  0
   -1.4289   -1.6500    0.0000 C   0  0  0  0  0  0  0  0  0  0  0  0
   -2.1434   -1.2375    0.0000 C   0  0  0  0  0  0  0  0  0  0  0  0
   -2.1434   -0.4125    0.0000 C   0  0  0  0  0  0  0  0  0  0  0  0
   -2.8579    0.0000    0.0000 F   0  0  0  0  0  0  0  0  0  0  0  0
   -1.4289    0.0000    0.0000 C   0  0  0  0  0  0  0  0  0  0  0  0
   -0.7145   -0.4125    0.0000 C   0  0  0  0  0  0  0  0  0  0  0  0
    0.0000    0.0000    0.0000 F   0  0  0  0  0  0  0  0  0  0  0  0
  1  2  1  0  0  0  0
  2  3  2  0  0  0  0
  3  4  1  0  0  0  0
  4  5  2  0  0  0  0
  5  6  1  0  0  0  0
  6  7  2  0  0  0  0
  2  7  1  0  0  0  0
  7  8  1  0  0  0  0
  8  9  2  0  0  0  0
  9 10  1  0  0  0  0
 10 11  2  0  0  0  0
 11 12  1  0  0  0  0
 11 13  1  0  0  0  0
 13 14  2  0  0  0  0
  8 14  1  0  0  0  0
 14 15  1  0  0  0  0
M  END
>  <Catalog ID>
Z1192005051

>  <PlateID>
1198308-R-SPFL-17

>  <Well>
H09

>  <MW (desalted)>
206.191

>  <ClogP>
2.525

>  <HBD>
1

>  <TPSA>
38.910

>  <RotBonds>
1

$$$$

            

 18 20  0  0  0  0            999 V2000
    1.4358   -2.7631    0.0000 N   0  0  0  0  0  0  0  0  0  0  0  0
    0.8838   -2.1500    0.0000 C   0  0  0  0  0  0  0  0  0  0  0  0
    0.0768   -2.3215    0.0000 O   0  0  0  0  0  0  0  0  0  0  0  0
    1.1387   -1.3654    0.0000 N   0  0  0  0  0  0  0  0  0  0  0  0
    0.6538   -0.6979    0.0000 C   0  0  0  0  0  0  0  0  0  0  0  0
    1.1387   -0.0305    0.0000 C   0  0  0  0  0  0  0  0  0  0  0  0
    1.9233   -0.2854    0.0000 C   0  0  0  0  0  0  0  0  0  0  0  0
    2.6378    0.1271    0.0000 C   0  0  0  0  0  0  0  0  0  0  0  0
    3.3523   -0.2854    0.0000 O   0  0  0  0  0  0  0  0  0  0  0  0
    3.3523   -1.1104    0.0000 C   0  0  0  0  0  0  0  0  0  0  0  0
    2.6378   -1.5229    0.0000 C   0  0  0  0  0  0  0  0  0  0  0  0
    1.9233   -1.1104    0.0000 C   0  0  0  0  0  0  0  0  0  0  0  0
    0.8838    0.7541    0.0000 C   0  0  0  0  0  0  0  0  0  0  0  0
    0.0768    0.9256    0.0000 C   0  0  0  0  0  0  0  0  0  0  0  0
   -0.1781    1.7103    0.0000 C   0  0  0  0  0  0  0  0  0  0  0  0
    0.3739    2.3234    0.0000 C   0  0  0  0  0  0  0  0  0  0  0  0
    1.1809    2.1518    0.0000 C   0  0  0  0  0  0  0  0  0  0  0  0
    1.4358    1.3672    0.0000 C   0  0  0  0  0  0  0  0  0  0  0  0
  1  2  1  0  0  0  0
  2  3  2  0  0  0  0
  2  4  1  0  0  0  0
  4  5  1  0  0  0  0
  5  6  1  0  0  0  0
  6  7  1  0  0  0  0
  7  8  1  0  0  0  0
  8  9  1  0  0  0  0
  9 10  1  0  0  0  0
 10 11  1  0  0  0  0
 11 12  1  0  0  0  0
  7 12  1  0  0  0  0
  4 12  1  0  0  0  0
  6 13  1  0  0  0  0
 13 14  2  0  0  0  0
 14 15  1  0  0  0  0
 15 16  2  0  0  0  0
 16 17  1  0  0  0  0
 17 18  2  0  0  0  0
 13 18  1  0  0  0  0
M  END
>  <Catalog ID>
Z2066180961

>  <PlateID>
1198308-R-SPFL-17

>  <Well>
H10

>  <MW (desalted)>
246.305

>  <ClogP>
-0.238

>  <HBD>
1

>  <TPSA>
55.560

>  <RotBonds>
1

$$$$

            

 11 11  0  0  0  0            999 V2000
    0.0000    0.0000    0.0000 Cl  0  0  0  0  0  0  0  0  0  0  0  0
    3.7519    1.4850    0.0000 N   0  0  0  0  0  0  0  0  0  0  0  0
    3.7519    0.6600    0.0000 C   0  0  0  0  0  0  0  0  0  0  0  0
    4.4663    0.2475    0.0000 C   0  0  0  0  0  0  0  0  0  0  0  0
    4.4663   -0.5775    0.0000 C   0  0  0  0  0  0  0  0  0  0  0  0
    3.7519   -0.9900    0.0000 C   0  0  0  0  0  0  0  0  0  0  0  0
    3.0374   -0.5775    0.0000 N   0  0  0  0  0  0  0  0  0  0  0  0
    2.2528   -0.8324    0.0000 C   0  0  0  0  0  0  0  0  0  0  0  0
    1.7679   -0.1650    0.0000 N   0  0  0  0  0  0  0  0  0  0  0  0
    2.2528    0.5024    0.0000 N   0  0  0  0  0  0  0  0  0  0  0  0
    3.0374    0.2475    0.0000 C   0  0  0  0  0  0  0  0  0  0  0  0
  2  3  1  0  0  0  0
  3  4  2  0  0  0  0
  4  5  1  0  0  0  0
  5  6  2  0  0  0  0
  6  7  1  0  0  0  0
  7  8  1  0  0  0  0
  8  9  2  0  0  0  0
  9 10  1  0  0  0  0
 10 11  2  0  0  0  0
  3 11  1  0  0  0  0
  7 11  1  0  0  0  0
M  END
>  <Catalog ID>
Z4353771607

>  <PlateID>
1198308-R-SPFL-17

>  <Well>
H11

>  <MW (desalted)>
134.139

>  <ClogP>
-0.011

>  <HBD>
1

>  <TPSA>
56.210

>  <RotBonds>
0

$$$$

            

 10 10  0  0  0  0            999 V2000
    1.2822    2.3518    0.0000 C   0  0  0  0  0  0  0  0  0  0  0  0
    0.5678    1.9393    0.0000 N   0  0  0  0  0  0  0  0  0  0  0  0
    0.5678    1.1143    0.0000 C   0  0  0  0  0  0  0  0  0  0  0  0
    1.2352    0.6294    0.0000 C   0  0  0  0  0  0  0  0  0  0  0  0
    0.9803   -0.1553    0.0000 C   0  0  0  0  0  0  0  0  0  0  0  0
    0.1553   -0.1553    0.0000 N   0  0  0  0  0  0  0  0  0  0  0  0
   -0.0997    0.6294    0.0000 N   0  0  0  0  0  0  0  0  0  0  0  0
   -0.8843    0.8843    0.0000 C   0  0  0  0  0  0  0  0  0  0  0  0
   -1.4974    0.3323    0.0000 C   0  0  0  0  0  0  0  0  0  0  0  0
   -1.0558    1.6913    0.0000 C   0  0  0  0  0  0  0  0  0  0  0  0
  1  2  1  0  0  0  0
  2  3  1  0  0  0  0
  3  4  2  0  0  0  0
  4  5  1  0  0  0  0
  5  6  2  0  0  0  0
  6  7  1  0  0  0  0
  3  7  1  0  0  0  0
  7  8  1  0  0  0  0
  8  9  1  0  0  0  0
  8 10  1  0  0  0  0
M  END
>  <Catalog ID>
Z1082871154

>  <PlateID>
1198308-R-SPFL-18

>  <Well>
A02

>  <MW (desalted)>
139.198

>  <ClogP>
1.071

>  <HBD>
1

>  <TPSA>
29.850

>  <RotBonds>
2

$$$$

            

 10 10  0  0  0  0            999 V2000
    0.0000    2.4750    0.0000 O   0  0  0  0  0  0  0  0  0  0  0  0
    0.7145    2.0625    0.0000 C   0  0  0  0  0  0  0  0  0  0  0  0
    1.4289    2.4750    0.0000 O   0  0  0  0  0  0  0  0  0  0  0  0
    0.7145    1.2375    0.0000 C   0  0  0  0  0  0  0  0  0  0  0  0
    1.4289    0.8250    0.0000 C   0  0  0  0  0  0  0  0  0  0  0  0
    1.4289   -0.0000    0.0000 C   0  0  0  0  0  0  0  0  0  0  0  0
    0.7145   -0.4125    0.0000 N   0  0  0  0  0  0  0  0  0  0  0  0
    0.0000    0.0000    0.0000 C   0  0  0  0  0  0  0  0  0  0  0  0
    0.0000    0.8250    0.0000 C   0  0  0  0  0  0  0  0  0  0  0  0
   -0.7145    1.2375    0.0000 Cl  0  0  0  0  0  0  0  0  0  0  0  0
  1  2  1  0  0  0  0
  2  3  2  0  0  0  0
  2  4  1  0  0  0  0
  4  5  2  0  0  0  0
  5  6  1  0  0  0  0
  6  7  2  0  0  0  0
  7  8  1  0  0  0  0
  8  9  2  0  0  0  0
  4  9  1  0  0  0  0
  9 10  1  0  0  0  0
M  END
>  <Catalog ID>
Z1255387391

>  <PlateID>
1198308-R-SPFL-18

>  <Well>
A03

>  <MW (desalted)>
157.554

>  <ClogP>
0.955

>  <HBD>
1

>  <TPSA>
50.190

>  <RotBonds>
1

$$$$

            

 12 13  0  0  0  0            999 V2000
    0.0000   -2.4750    0.0000 O   0  0  0  0  0  0  0  0  0  0  0  0
    0.0000   -1.6500    0.0000 C   0  0  0  0  0  0  0  0  0  0  0  0
    0.7145   -1.2375    0.0000 C   0  0  0  0  0  0  0  0  0  0  0  0
    0.7145   -0.4125    0.0000 C   0  0  0  0  0  0  0  0  0  0  0  0
    1.4289    0.0000    0.0000 S   0  0  0  0  0  0  0  0  0  0  0  0
    2.1434   -0.4125    0.0000 C   0  0  0  0  0  0  0  0  0  0  0  0
    2.8579    0.0000    0.0000 C   0  0  0  0  0  0  0  0  0  0  0  0
    3.5724   -0.4125    0.0000 C   0  0  0  0  0  0  0  0  0  0  0  0
    3.5724   -1.2375    0.0000 C   0  0  0  0  0  0  0  0  0  0  0  0
    2.8579   -1.6500    0.0000 C   0  0  0  0  0  0  0  0  0  0  0  0
    2.1434   -1.2375    0.0000 C   0  0  0  0  0  0  0  0  0  0  0  0
    1.4289   -1.6500    0.0000 O   0  0  0  0  0  0  0  0  0  0  0  0
  1  2  1  0  0  0  0
  2  3  1  0  0  0  0
  3  4  1  0  0  0  0
  4  5  1  0  0  0  0
  5  6  1  0  0  0  0
  6  7  2  0  0  0  0
  7  8  1  0  0  0  0
  8  9  2  0  0  0  0
  9 10  1  0  0  0  0
 10 11  2  0  0  0  0
  6 11  1  0  0  0  0
 11 12  1  0  0  0  0
  3 12  1  0  0  0  0
M  END
>  <Catalog ID>
Z916847050

>  <PlateID>
1198308-R-SPFL-18

>  <Well>
A04

>  <MW (desalted)>
182.240

>  <ClogP>
1.620

>  <HBD>
1

>  <TPSA>
29.460

>  <RotBonds>
1

$$$$

            

 12 12  0  0  0  0            999 V2000
    0.7145    2.0625    0.0000 C   0  0  0  0  0  0  0  0  0  0  0  0
    0.7145    1.2375    0.0000 C   0  0  0  0  0  0  0  0  0  0  0  0
    1.4289    0.8250    0.0000 C   0  0  0  0  0  0  0  0  0  0  0  0
    1.4289   -0.0000    0.0000 C   0  0  0  0  0  0  0  0  0  0  0  0
    0.7145   -0.4125    0.0000 N   0  0  0  0  0  0  0  0  0  0  0  0
    0.0000    0.0000    0.0000 C   0  0  0  0  0  0  0  0  0  0  0  0
    0.0000    0.8250    0.0000 C   0  0  0  0  0  0  0  0  0  0  0  0
   -0.7145   -0.4125    0.0000 C   0  0  0  0  0  0  0  0  0  0  0  0
   -1.1270    0.3020    0.0000 C   0  0  0  0  0  0  0  0  0  0  0  0
   -0.3020   -1.1270    0.0000 C   0  0  0  0  0  0  0  0  0  0  0  0
   -1.4289   -0.8250    0.0000 C   0  0  0  0  0  0  0  0  0  0  0  0
   -1.4289   -1.6500    0.0000 N   0  0  0  0  0  0  0  0  0  0  0  0
  1  2  1  0  0  0  0
  2  3  2  0  0  0  0
  3  4  1  0  0  0  0
  4  5  2  0  0  0  0
  5  6  1  0  0  0  0
  6  7  2  0  0  0  0
  2  7  1  0  0  0  0
  6  8  1  0  0  0  0
  8  9  1  0  0  0  0
  8 10  1  0  0  0  0
  8 11  1  0  0  0  0
 11 12  1  0  0  0  0
M  END
>  <Catalog ID>
Z1255401082

>  <PlateID>
1198308-R-SPFL-18

>  <Well>
A05

>  <MW (desalted)>
164.247

>  <ClogP>
1.233

>  <HBD>
1

>  <TPSA>
38.910

>  <RotBonds>
2

$$$$

            

 11 11  0  0  0  0            999 V2000
    0.0000    2.4750    0.0000 C   0  0  0  0  0  0  0  0  0  0  0  0
    0.7145    2.0625    0.0000 N   0  0  0  0  0  0  0  0  0  0  0  0
    1.4289    2.4750    0.0000 C   0  0  0  0  0  0  0  0  0  0  0  0
    0.7145    1.2375    0.0000 C   0  0  0  0  0  0  0  0  0  0  0  0
    1.4289    0.8250    0.0000 N   0  0  0  0  0  0  0  0  0  0  0  0
    1.4289   -0.0000    0.0000 C   0  0  0  0  0  0  0  0  0  0  0  0
    0.7145   -0.4125    0.0000 C   0  0  0  0  0  0  0  0  0  0  0  0
    0.7145   -1.2375    0.0000 C   0  0  0  0  0  0  0  0  0  0  0  0
    0.7145   -2.0625    0.0000 C   0  0  0  0  0  0  0  0  0  0  0  0
    0.0000    0.0000    0.0000 C   0  0  0  0  0  0  0  0  0  0  0  0
    0.0000    0.8250    0.0000 N   0  0  0  0  0  0  0  0  0  0  0  0
  1  2  1  0  0  0  0
  2  3  1  0  0  0  0
  2  4  1  0  0  0  0
  4  5  2  0  0  0  0
  5  6  1  0  0  0  0
  6  7  2  0  0  0  0
  7  8  1  0  0  0  0
  8  9  3  0  0  0  0
  7 10  1  0  0  0  0
 10 11  2  0  0  0  0
  4 11  1  0  0  0  0
M  END
>  <Catalog ID>
Z1255425247

>  <PlateID>
1198308-R-SPFL-18

>  <Well>
A06

>  <MW (desalted)>
147.177

>  <ClogP>
0.864

>  <HBD>
0

>  <TPSA>
29.020

>  <RotBonds>
1

$$$$

            

 13 14  0  0  0  0            999 V2000
    0.7145   -0.4125    0.0000 N   0  0  0  0  0  0  0  0  0  0  0  0
    0.7145   -1.2375    0.0000 C   0  0  0  0  0  0  0  0  0  0  0  0
    1.3819   -1.7224    0.0000 N   0  0  0  0  0  0  0  0  0  0  0  0
    1.1270   -2.5070    0.0000 C   0  0  0  0  0  0  0  0  0  0  0  0
    0.3020   -2.5070    0.0000 N   0  0  0  0  0  0  0  0  0  0  0  0
    0.0470   -1.7224    0.0000 O   0  0  0  0  0  0  0  0  0  0  0  0
    1.6119   -3.1745    0.0000 C   0  0  0  0  0  0  0  0  0  0  0  0
    2.4324   -3.0882    0.0000 C   0  0  0  0  0  0  0  0  0  0  0  0
    2.9173   -3.7557    0.0000 C   0  0  0  0  0  0  0  0  0  0  0  0
    2.5817   -4.5094    0.0000 C   0  0  0  0  0  0  0  0  0  0  0  0
    3.0667   -5.1768    0.0000 F   0  0  0  0  0  0  0  0  0  0  0  0
    1.7613   -4.5956    0.0000 C   0  0  0  0  0  0  0  0  0  0  0  0
    1.2763   -3.9282    0.0000 C   0  0  0  0  0  0  0  0  0  0  0  0
  1  2  1  0  0  0  0
  2  3  2  0  0  0  0
  3  4  1  0  0  0  0
  4  5  2  0  0  0  0
  5  6  1  0  0  0  0
  2  6  1  0  0  0  0
  4  7  1  0  0  0  0
  7  8  2  0  0  0  0
  8  9  1  0  0  0  0
  9 10  2  0  0  0  0
 10 11  1  0  0  0  0
 10 12  1  0  0  0  0
 12 13  2  0  0  0  0
  7 13  1  0  0  0  0
M  END
>  <Catalog ID>
Z991477746

>  <PlateID>
1198308-R-SPFL-18

>  <Well>
A07

>  <MW (desalted)>
179.151

>  <ClogP>
1.718

>  <HBD>
1

>  <TPSA>
64.940

>  <RotBonds>
1

$$$$

            

 11 11  0  0  0  0            999 V2000
    1.4289    2.4750    0.0000 N   0  0  0  0  0  0  0  0  0  0  0  0
    0.7145    2.0625    0.0000 C   0  0  0  0  0  0  0  0  0  0  0  0
    0.7145    1.2375    0.0000 C   0  0  0  0  0  0  0  0  0  0  0  0
    1.4289    0.8250    0.0000 C   0  0  0  0  0  0  0  0  0  0  0  0
    1.4289   -0.0000    0.0000 C   0  0  0  0  0  0  0  0  0  0  0  0
    0.7145   -0.4125    0.0000 N   0  0  0  0  0  0  0  0  0  0  0  0
    0.0000    0.0000    0.0000 C   0  0  0  0  0  0  0  0  0  0  0  0
    0.0000    0.8250    0.0000 C   0  0  0  0  0  0  0  0  0  0  0  0
   -0.7145   -0.4125    0.0000 C   0  0  0  0  0  0  0  0  0  0  0  0
   -0.7145   -1.2375    0.0000 F   0  0  0  0  0  0  0  0  0  0  0  0
   -1.4289    0.0000    0.0000 F   0  0  0  0  0  0  0  0  0  0  0  0
  1  2  1  0  0  0  0
  2  3  1  0  0  0  0
  3  4  2  0  0  0  0
  4  5  1  0  0  0  0
  5  6  2  0  0  0  0
  6  7  1  0  0  0  0
  7  8  2  0  0  0  0
  3  8  1  0  0  0  0
  7  9  1  0  0  0  0
  9 10  1  0  0  0  0
  9 11  1  0  0  0  0
M  END
>  <Catalog ID>
Z1255460760

>  <PlateID>
1198308-R-SPFL-18

>  <Well>
A08

>  <MW (desalted)>
158.149

>  <ClogP>
-0.208

>  <HBD>
1

>  <TPSA>
38.910

>  <RotBonds>
2

$$$$

            

 11 11  0  0  0  0            999 V2000
    0.7145    2.0625    0.0000 O   0  0  0  0  0  0  0  0  0  0  0  0
    0.7145    1.2375    0.0000 C   0  0  0  0  0  0  0  0  0  0  0  0
    1.4289    0.8250    0.0000 C   0  0  0  0  0  0  0  0  0  0  0  0
    1.4289   -0.0000    0.0000 C   0  0  0  0  0  0  0  0  0  0  0  0
    0.7145   -0.4125    0.0000 C   0  0  0  0  0  0  0  0  0  0  0  0
    0.7145   -1.2375    0.0000 O   0  0  0  0  0  0  0  0  0  0  0  0
   -0.0000   -1.6500    0.0000 C   0  0  0  0  0  0  0  0  0  0  0  0
   -0.0000   -2.4750    0.0000 F   0  0  0  0  0  0  0  0  0  0  0  0
   -0.7145   -1.2375    0.0000 F   0  0  0  0  0  0  0  0  0  0  0  0
    0.0000    0.0000    0.0000 C   0  0  0  0  0  0  0  0  0  0  0  0
    0.0000    0.8250    0.0000 C   0  0  0  0  0  0  0  0  0  0  0  0
  1  2  1  0  0  0  0
  2  3  2  0  0  0  0
  3  4  1  0  0  0  0
  4  5  2  0  0  0  0
  5  6  1  0  0  0  0
  6  7  1  0  0  0  0
  7  8  1  0  0  0  0
  7  9  1  0  0  0  0
  5 10  1  0  0  0  0
 10 11  2  0  0  0  0
  2 11  1  0  0  0  0
M  END
>  <Catalog ID>
Z381414802

>  <PlateID>
1198308-R-SPFL-18

>  <Well>
A09

>  <MW (desalted)>
160.118

>  <ClogP>
2.020

>  <HBD>
1

>  <TPSA>
29.460

>  <RotBonds>
2

$$$$

            

 16 17  0  0  0  0            999 V2000
   -1.4289   -0.0000    0.0000 C   0  0  0  0  0  0  0  0  0  0  0  0
   -0.7145   -0.4125    0.0000 O   0  0  0  0  0  0  0  0  0  0  0  0
    0.0000   -0.0000    0.0000 C   0  0  0  0  0  0  0  0  0  0  0  0
    0.0000    0.8250    0.0000 O   0  0  0  0  0  0  0  0  0  0  0  0
    0.7145   -0.4125    0.0000 C   0  0  0  0  0  0  0  0  0  0  0  0
    1.4289    0.0000    0.0000 C   0  0  0  0  0  0  0  0  0  0  0  0
    2.1434   -0.4125    0.0000 C   0  0  0  0  0  0  0  0  0  0  0  0
    2.8579    0.0000    0.0000 C   0  0  0  0  0  0  0  0  0  0  0  0
    3.5724   -0.4125    0.0000 C   0  0  0  0  0  0  0  0  0  0  0  0
    3.5724   -1.2375    0.0000 C   0  0  0  0  0  0  0  0  0  0  0  0
    4.2868   -1.6500    0.0000 Cl  0  0  0  0  0  0  0  0  0  0  0  0
    2.8579   -1.6500    0.0000 C   0  0  0  0  0  0  0  0  0  0  0  0
    2.1434   -1.2375    0.0000 C   0  0  0  0  0  0  0  0  0  0  0  0
    1.4289   -1.6500    0.0000 C   0  0  0  0  0  0  0  0  0  0  0  0
    1.4289   -2.4750    0.0000 O   0  0  0  0  0  0  0  0  0  0  0  0
    0.7145   -1.2375    0.0000 O   0  0  0  0  0  0  0  0  0  0  0  0
  1  2  1  0  0  0  0
  2  3  1  0  0  0  0
  3  4  2  0  0  0  0
  3  5  1  0  0  0  0
  5  6  2  0  0  0  0
  6  7  1  0  0  0  0
  7  8  2  0  0  0  0
  8  9  1  0  0  0  0
  9 10  2  0  0  0  0
 10 11  1  0  0  0  0
 10 12  1  0  0  0  0
 12 13  2  0  0  0  0
  7 13  1  0  0  0  0
 13 14  1  0  0  0  0
 14 15  2  0  0  0  0
 14 16  1  0  0  0  0
  5 16  1  0  0  0  0
M  END
>  <Catalog ID>
Z2856434165

>  <PlateID>
1198308-R-SPFL-18

>  <Well>
A10

>  <MW (desalted)>
238.624

>  <ClogP>
2.094

>  <HBD>
0

>  <TPSA>
52.600

>  <RotBonds>
2

$$$$

            

 10 11  0  0  0  0            999 V2000
    3.2789    2.0625    0.0000 N   0  0  0  0  0  0  0  0  0  0  0  0
    3.2789    1.2375    0.0000 C   0  0  0  0  0  0  0  0  0  0  0  0
    3.9934    0.8250    0.0000 N   0  0  0  0  0  0  0  0  0  0  0  0
    3.9934    0.0000    0.0000 C   0  0  0  0  0  0  0  0  0  0  0  0
    3.2789   -0.4125    0.0000 N   0  0  0  0  0  0  0  0  0  0  0  0
    2.5645    0.0000    0.0000 N   0  0  0  0  0  0  0  0  0  0  0  0
    1.7798   -0.2549    0.0000 C   0  0  0  0  0  0  0  0  0  0  0  0
    1.2949    0.4125    0.0000 C   0  0  0  0  0  0  0  0  0  0  0  0
    1.7798    1.0799    0.0000 C   0  0  0  0  0  0  0  0  0  0  0  0
    2.5645    0.8250    0.0000 C   0  0  0  0  0  0  0  0  0  0  0  0
  1  2  1  0  0  0  0
  2  3  2  0  0  0  0
  3  4  1  0  0  0  0
  4  5  2  0  0  0  0
  5  6  1  0  0  0  0
  6  7  1  0  0  0  0
  7  8  2  0  0  0  0
  8  9  1  0  0  0  0
  9 10  2  0  0  0  0
  2 10  1  0  0  0  0
  6 10  1  0  0  0  0
M  END
>  <Catalog ID>
Z1198176468

>  <PlateID>
1198308-R-SPFL-18

>  <Well>
A11

>  <MW (desalted)>
134.139

>  <ClogP>
0.207

>  <HBD>
1

>  <TPSA>
56.210

>  <RotBonds>
0

$$$$

            

 14 15  0  0  0  0            999 V2000
    0.0000   -1.6500    0.0000 C   0  0  0  0  0  0  0  0  0  0  0  0
    0.7145   -1.2375    0.0000 C   0  0  0  0  0  0  0  0  0  0  0  0
    0.7145   -0.4125    0.0000 C   0  0  0  0  0  0  0  0  0  0  0  0
    1.4289    0.0000    0.0000 C   0  0  0  0  0  0  0  0  0  0  0  0
    1.4289    0.8250    0.0000 C   0  0  0  0  0  0  0  0  0  0  0  0
    1.4289    1.6500    0.0000 N   0  0  0  0  0  0  0  0  0  0  0  0
    2.1434   -0.4125    0.0000 C   0  0  0  0  0  0  0  0  0  0  0  0
    2.8579    0.0000    0.0000 C   0  0  0  0  0  0  0  0  0  0  0  0
    3.5724   -0.4125    0.0000 C   0  0  0  0  0  0  0  0  0  0  0  0
    3.5724   -1.2375    0.0000 C   0  0  0  0  0  0  0  0  0  0  0  0
    2.8579   -1.6500    0.0000 N   0  0  0  0  0  0  0  0  0  0  0  0
    2.1434   -1.2375    0.0000 C   0  0  0  0  0  0  0  0  0  0  0  0
    1.4289   -1.6500    0.0000 C   0  0  0  0  0  0  0  0  0  0  0  0
    1.4289   -2.4750    0.0000 C   0  0  0  0  0  0  0  0  0  0  0  0
  1  2  1  0  0  0  0
  2  3  1  0  0  0  0
  3  4  2  0  0  0  0
  4  5  1  0  0  0  0
  5  6  3  0  0  0  0
  4  7  1  0  0  0  0
  7  8  2  0  0  0  0
  8  9  1  0  0  0  0
  9 10  2  0  0  0  0
 10 11  1  0  0  0  0
 11 12  2  0  0  0  0
  7 12  1  0  0  0  0
 12 13  1  0  0  0  0
  2 13  2  0  0  0  0
 13 14  1  0  0  0  0
M  END
>  <Catalog ID>
Z4125544445

>  <PlateID>
1198308-R-SPFL-18

>  <Well>
B02

>  <MW (desalted)>
182.221

>  <ClogP>
2.556

>  <HBD>
0

>  <TPSA>
36.680

>  <RotBonds>
0

$$$$

            

  0  0  0     0  0            999 V3000
M  V30 BEGIN CTAB
M  V30 COUNTS 14 14 0 0 0
M  V30 BEGIN ATOM
M  V30 1 Cl 0 0 0 0
M  V30 2 N 8.8547 1.7769 0 0
M  V30 3 C 8.8547 0.2369 0 0 CFG=2
M  V30 4 C 10.1884 -0.5331 0 0
M  V30 5 O 10.1884 -2.0731 0 0
M  V30 6 C 8.8547 -2.8431 0 0
M  V30 7 C 7.521 -2.0731 0 0
M  V30 8 C 7.521 -0.5331 0 0 CFG=2
M  V30 9 C 6.1874 0.2369 0 0
M  V30 10 C 4.8537 -0.5331 0 0
M  V30 11 C 3.52 0.2369 0 0
M  V30 12 C 3.52 1.7769 0 0
M  V30 13 C 4.8537 2.5469 0 0
M  V30 14 C 6.1874 1.7769 0 0
M  V30 END ATOM
M  V30 BEGIN BOND
M  V30 1 1 3 2 CFG=3
M  V30 2 1 3 4
M  V30 3 1 4 5
M  V30 4 1 5 6
M  V30 5 1 6 7
M  V30 6 1 8 7
M  V30 7 1 3 8
M  V30 8 1 8 9 CFG=3
M  V30 9 2 9 10
M  V30 10 1 10 11
M  V30 11 2 11 12
M  V30 12 1 12 13
M  V30 13 2 13 14
M  V30 14 1 9 14
M  V30 END BOND
M  V30 BEGIN COLLECTION
M  V30 MDLV30/STERAC1 ATOMS=(2 3 8)
M  V30 END COLLECTION
M  V30 END CTAB
M  END
>  <Catalog ID>
Z4463176366

>  <PlateID>
1198308-R-SPFL-18

>  <Well>
B03

>  <MW (desalted)>
177.243

>  <ClogP>
1.283

>  <HBD>
1

>  <TPSA>
35.250

>  <RotBonds>
1

$$$$

            

 12 13  0  0  0  0            999 V2000
    4.7812    3.5854    0.0000 N   0  0  0  0  0  0  0  0  0  0  0  0
    4.0668    3.1729    0.0000 C   0  0  0  0  0  0  0  0  0  0  0  0
    4.0668    2.3479    0.0000 C   0  0  0  0  0  0  0  0  0  0  0  0
    3.3523    1.9354    0.0000 N   0  0  0  0  0  0  0  0  0  0  0  0
    3.3523    1.1104    0.0000 C   0  0  0  0  0  0  0  0  0  0  0  0
    2.6378    0.6979    0.0000 C   0  0  0  0  0  0  0  0  0  0  0  0
    1.9233    1.1104    0.0000 C   0  0  0  0  0  0  0  0  0  0  0  0
    1.1387    0.8555    0.0000 S   0  0  0  0  0  0  0  0  0  0  0  0
    0.6538    1.5229    0.0000 C   0  0  0  0  0  0  0  0  0  0  0  0
    1.1387    2.1904    0.0000 C   0  0  0  0  0  0  0  0  0  0  0  0
    1.9233    1.9354    0.0000 C   0  0  0  0  0  0  0  0  0  0  0  0
    2.6378    2.3479    0.0000 C   0  0  0  0  0  0  0  0  0  0  0  0
  1  2  1  0  0  0  0
  2  3  1  0  0  0  0
  3  4  1  0  0  0  0
  4  5  1  0  0  0  0
  5  6  1  0  0  0  0
  6  7  1  0  0  0  0
  7  8  1  0  0  0  0
  8  9  1  0  0  0  0
  9 10  2  0  0  0  0
 10 11  1  0  0  0  0
  7 11  2  0  0  0  0
 11 12  1  0  0  0  0
  4 12  1  0  0  0  0
M  END
>  <Catalog ID>
Z316901626

>  <PlateID>
1198308-R-SPFL-18

>  <Well>
B04

>  <MW (desalted)>
182.286

>  <ClogP>
1.189

>  <HBD>
1

>  <TPSA>
29.260

>  <RotBonds>
2

$$$$

            

  8  8  0  0  0  0            999 V2000
    0.5678    1.9393    0.0000 C   0  0  0  0  0  0  0  0  0  0  0  0
    0.5678    1.1143    0.0000 C   0  0  0  0  0  0  0  0  0  0  0  0
    1.2352    0.6294    0.0000 N   0  0  0  0  0  0  0  0  0  0  0  0
    0.9803   -0.1553    0.0000 C   0  0  0  0  0  0  0  0  0  0  0  0
    0.1553   -0.1553    0.0000 S   0  0  0  0  0  0  0  0  0  0  0  0
   -0.0997    0.6294    0.0000 C   0  0  0  0  0  0  0  0  0  0  0  0
   -0.8843    0.8843    0.0000 C   0  0  0  0  0  0  0  0  0  0  0  0
   -1.6689    1.1392    0.0000 C   0  0  0  0  0  0  0  0  0  0  0  0
  1  2  1  0  0  0  0
  2  3  1  0  0  0  0
  3  4  2  0  0  0  0
  4  5  1  0  0  0  0
  5  6  1  0  0  0  0
  2  6  2  0  0  0  0
  6  7  1  0  0  0  0
  7  8  3  0  0  0  0
M  END
>  <Catalog ID>
Z1939443840

>  <PlateID>
1198308-R-SPFL-18

>  <Well>
B05

>  <MW (desalted)>
123.176

>  <ClogP>
1.255

>  <HBD>
0

>  <TPSA>
12.890

>  <RotBonds>
0

$$$$

            

  9  9  0  0  0  0            999 V2000
    0.7145    2.0625    0.0000 C   0  0  0  0  0  0  0  0  0  0  0  0
    0.7145    1.2375    0.0000 C   0  0  0  0  0  0  0  0  0  0  0  0
    1.4289    0.8250    0.0000 C   0  0  0  0  0  0  0  0  0  0  0  0
    1.4289   -0.0000    0.0000 N   0  0  0  0  0  0  0  0  0  0  0  0
    0.7145   -0.4125    0.0000 C   0  0  0  0  0  0  0  0  0  0  0  0
    0.7145   -1.2375    0.0000 C   0  0  0  0  0  0  0  0  0  0  0  0
    0.7145   -2.0625    0.0000 C   0  0  0  0  0  0  0  0  0  0  0  0
    0.0000    0.0000    0.0000 N   0  0  0  0  0  0  0  0  0  0  0  0
    0.0000    0.8250    0.0000 C   0  0  0  0  0  0  0  0  0  0  0  0
  1  2  1  0  0  0  0
  2  3  2  0  0  0  0
  3  4  1  0  0  0  0
  4  5  2  0  0  0  0
  5  6  1  0  0  0  0
  6  7  3  0  0  0  0
  5  8  1  0  0  0  0
  8  9  2  0  0  0  0
  2  9  1  0  0  0  0
M  END
>  <Catalog ID>
Z1255459210

>  <PlateID>
1198308-R-SPFL-18

>  <Well>
B06

>  <MW (desalted)>
118.136

>  <ClogP>
0.457

>  <HBD>
0

>  <TPSA>
25.780

>  <RotBonds>
0

$$$$

            

 11 12  0  0  0  0            999 V2000
    0.0000   -1.6500    0.0000 F   0  0  0  0  0  0  0  0  0  0  0  0
    0.7145   -1.2375    0.0000 C   0  0  0  0  0  0  0  0  0  0  0  0
    0.7145   -0.4125    0.0000 C   0  0  0  0  0  0  0  0  0  0  0  0
    1.4289    0.0000    0.0000 N   0  0  0  0  0  0  0  0  0  0  0  0
    2.1434   -0.4125    0.0000 C   0  0  0  0  0  0  0  0  0  0  0  0
    2.8579    0.0000    0.0000 C   0  0  0  0  0  0  0  0  0  0  0  0
    3.5724   -0.4125    0.0000 C   0  0  0  0  0  0  0  0  0  0  0  0
    3.5724   -1.2375    0.0000 C   0  0  0  0  0  0  0  0  0  0  0  0
    2.8579   -1.6500    0.0000 C   0  0  0  0  0  0  0  0  0  0  0  0
    2.1434   -1.2375    0.0000 C   0  0  0  0  0  0  0  0  0  0  0  0
    1.4289   -1.6500    0.0000 C   0  0  0  0  0  0  0  0  0  0  0  0
  1  2  1  0  0  0  0
  2  3  1  0  0  0  0
  3  4  2  0  0  0  0
  4  5  1  0  0  0  0
  5  6  2  0  0  0  0
  6  7  1  0  0  0  0
  7  8  2  0  0  0  0
  8  9  1  0  0  0  0
  9 10  2  0  0  0  0
  5 10  1  0  0  0  0
 10 11  1  0  0  0  0
  2 11  2  0  0  0  0
M  END
>  <Catalog ID>
Z1198152657

>  <PlateID>
1198308-R-SPFL-18

>  <Well>
B07

>  <MW (desalted)>
147.149

>  <ClogP>
2.256

>  <HBD>
0

>  <TPSA>
12.890

>  <RotBonds>
0

$$$$

            

 13 14  0  0  0  0            999 V2000
    0.7145   -0.4125    0.0000 C   0  0  0  0  0  0  0  0  0  0  0  0
    1.2448   -1.0445    0.0000 C   0  0  0  0  0  0  0  0  0  0  0  0
    1.9592   -1.4570    0.0000 C   0  0  0  0  0  0  0  0  0  0  0  0
    1.9592   -2.2820    0.0000 C   0  0  0  0  0  0  0  0  0  0  0  0
    1.2448   -2.6945    0.0000 C   0  0  0  0  0  0  0  0  0  0  0  0
    0.5303   -2.2820    0.0000 N   0  0  0  0  0  0  0  0  0  0  0  0
    0.5303   -1.4570    0.0000 C   0  0  0  0  0  0  0  0  0  0  0  0
    1.7751   -0.4125    0.0000 C   0  0  0  0  0  0  0  0  0  0  0  0
    1.4929    0.3627    0.0000 C   0  0  0  0  0  0  0  0  0  0  0  0
    2.0232    0.9947    0.0000 C   0  0  0  0  0  0  0  0  0  0  0  0
    2.8357    0.8515    0.0000 C   0  0  0  0  0  0  0  0  0  0  0  0
    3.1178    0.0762    0.0000 N   0  0  0  0  0  0  0  0  0  0  0  0
    2.5875   -0.5558    0.0000 C   0  0  0  0  0  0  0  0  0  0  0  0
  1  2  1  0  0  0  0
  2  3  1  0  0  0  0
  3  4  1  0  0  0  0
  4  5  1  0  0  0  0
  5  6  1  0  0  0  0
  6  7  1  0  0  0  0
  2  7  1  0  0  0  0
  2  8  1  0  0  0  0
  8  9  2  0  0  0  0
  9 10  1  0  0  0  0
 10 11  2  0  0  0  0
 11 12  1  0  0  0  0
 12 13  2  0  0  0  0
  8 13  1  0  0  0  0
M  END
>  <Catalog ID>
Z1209426412

>  <PlateID>
1198308-R-SPFL-18

>  <Well>
B08

>  <MW (desalted)>
176.258

>  <ClogP>
1.515

>  <HBD>
1

>  <TPSA>
24.920

>  <RotBonds>
1

$$$$

            

 11 12  0  0  0  0            999 V2000
    1.4289    0.0000    0.0000 O   0  0  0  0  0  0  0  0  0  0  0  0
    0.7145   -0.4125    0.0000 C   0  0  0  0  0  0  0  0  0  0  0  0
    0.7145   -1.2375    0.0000 C   0  0  0  0  0  0  0  0  0  0  0  0
    1.1270   -1.9520    0.0000 C   0  0  0  0  0  0  0  0  0  0  0  0
    0.3020   -1.9520    0.0000 C   0  0  0  0  0  0  0  0  0  0  0  0
   -0.4125   -2.3645    0.0000 C   0  0  0  0  0  0  0  0  0  0  0  0
   -0.4125   -3.1895    0.0000 C   0  0  0  0  0  0  0  0  0  0  0  0
   -1.1270   -3.6020    0.0000 C   0  0  0  0  0  0  0  0  0  0  0  0
   -1.8414   -3.1895    0.0000 C   0  0  0  0  0  0  0  0  0  0  0  0
   -1.8414   -2.3645    0.0000 C   0  0  0  0  0  0  0  0  0  0  0  0
   -1.1270   -1.9520    0.0000 C   0  0  0  0  0  0  0  0  0  0  0  0
  1  2  1  0  0  0  0
  2  3  1  0  0  0  0
  3  4  1  0  0  0  0
  4  5  1  0  0  0  0
  3  5  1  0  0  0  0
  5  6  1  0  0  0  0
  6  7  2  0  0  0  0
  7  8  1  0  0  0  0
  8  9  2  0  0  0  0
  9 10  1  0  0  0  0
 10 11  2  0  0  0  0
  6 11  1  0  0  0  0
M  END
>  <Catalog ID>
Z1198163642

>  <PlateID>
1198308-R-SPFL-18

>  <Well>
B09

>  <MW (desalted)>
148.202

>  <ClogP>
1.617

>  <HBD>
1

>  <TPSA>
20.230

>  <RotBonds>
2

$$$$

            

 14 15  0  0  0  0            999 V2000
   -0.0000    7.1786    0.0000 O   0  0  0  0  0  0  0  0  0  0  0  0
    0.7145    6.7661    0.0000 C   0  0  0  0  0  0  0  0  0  0  0  0
    1.4289    7.1786    0.0000 O   0  0  0  0  0  0  0  0  0  0  0  0
    0.7145    5.9411    0.0000 C   0  0  0  0  0  0  0  0  0  0  0  0
    1.4289    5.5286    0.0000 C   0  0  0  0  0  0  0  0  0  0  0  0
    1.4289    4.7036    0.0000 C   0  0  0  0  0  0  0  0  0  0  0  0
    0.7145    4.2911    0.0000 C   0  0  0  0  0  0  0  0  0  0  0  0
    0.0000    4.7036    0.0000 C   0  0  0  0  0  0  0  0  0  0  0  0
    0.0000    5.5286    0.0000 N   0  0  0  0  0  0  0  0  0  0  0  0
    0.7145    3.4661    0.0000 C   0  0  0  0  0  0  0  0  0  0  0  0
    1.3819    2.9812    0.0000 C   0  0  0  0  0  0  0  0  0  0  0  0
    1.1270    2.1965    0.0000 C   0  0  0  0  0  0  0  0  0  0  0  0
    0.3020    2.1965    0.0000 C   0  0  0  0  0  0  0  0  0  0  0  0
    0.0470    2.9812    0.0000 S   0  0  0  0  0  0  0  0  0  0  0  0
  1  2  1  0  0  0  0
  2  3  2  0  0  0  0
  2  4  1  0  0  0  0
  4  5  2  0  0  0  0
  5  6  1  0  0  0  0
  6  7  2  0  0  0  0
  7  8  1  0  0  0  0
  8  9  2  0  0  0  0
  4  9  1  0  0  0  0
  7 10  1  0  0  0  0
 10 11  2  0  0  0  0
 11 12  1  0  0  0  0
 12 13  2  0  0  0  0
 13 14  1  0  0  0  0
 10 14  1  0  0  0  0
M  END
>  <Catalog ID>
Z1065600200

>  <PlateID>
1198308-R-SPFL-18

>  <Well>
B10

>  <MW (desalted)>
205.233

>  <ClogP>
2.780

>  <HBD>
1

>  <TPSA>
50.190

>  <RotBonds>
2

$$$$

            

 14 14  0  0  1  0            999 V2000
    0.0000    0.0000    0.0000 Cl  0  0  0  0  0  0  0  0  0  0  0  0
    2.3571   -1.3327    0.0000 C   0  0  0  0  0  0  0  0  0  0  0  0
    2.3571   -0.5077    0.0000 O   0  0  0  0  0  0  0  0  0  0  0  0
    3.0716   -0.0952    0.0000 C   0  0  0  0  0  0  0  0  0  0  0  0
    3.0716    0.7298    0.0000 C   0  0  0  0  0  0  0  0  0  0  0  0
    3.7861    1.1423    0.0000 C   0  0  0  0  0  0  0  0  0  0  0  0
    4.5006    0.7298    0.0000 C   0  0  0  0  0  0  0  0  0  0  0  0
    5.2150    1.1423    0.0000 C   0  0  0  0  0  0  0  0  0  0  0  0
    5.9295    0.7298    0.0000 C   0  0  0  0  0  0  0  0  0  0  0  0
    5.9295   -0.0952    0.0000 C   0  0  0  0  0  0  0  0  0  0  0  0
    5.2150   -0.5077    0.0000 C   0  0  2  0  0  0  0  0  0  0  0  0
    5.2150   -1.3327    0.0000 N   0  0  0  0  0  0  0  0  0  0  0  0
    4.5006   -0.0952    0.0000 C   0  0  0  0  0  0  0  0  0  0  0  0
    3.7861   -0.5077    0.0000 C   0  0  0  0  0  0  0  0  0  0  0  0
  2  3  1  0  0  0  0
  3  4  1  0  0  0  0
  4  5  2  0  0  0  0
  5  6  1  0  0  0  0
  6  7  2  0  0  0  0
  7  8  1  0  0  0  0
  8  9  1  0  0  0  0
  9 10  1  0  0  0  0
 11 10  1  0  0  0  0
 11 12  1  6  0  0  0
 11 13  1  0  0  0  0
  7 13  1  0  0  0  0
 13 14  2  0  0  0  0
  4 14  1  0  0  0  0
M  END
>  <Catalog ID>
Z1492796833

>  <PlateID>
1198308-R-SPFL-18

>  <Well>
B11

>  <MW (desalted)>
177.243

>  <ClogP>
1.986

>  <HBD>
1

>  <TPSA>
35.250

>  <RotBonds>
1

$$$$

            

 14 15  0  0  0  0            999 V2000
    0.7145   -0.4125    0.0000 N   0  0  0  0  0  0  0  0  0  0  0  0
    0.7145   -1.2375    0.0000 C   0  0  0  0  0  0  0  0  0  0  0  0
    1.3819   -1.7224    0.0000 N   0  0  0  0  0  0  0  0  0  0  0  0
    1.1270   -2.5070    0.0000 C   0  0  0  0  0  0  0  0  0  0  0  0
    0.3020   -2.5070    0.0000 N   0  0  0  0  0  0  0  0  0  0  0  0
    0.0470   -1.7224    0.0000 N   0  0  0  0  0  0  0  0  0  0  0  0
   -0.7376   -1.4675    0.0000 C   0  0  0  0  0  0  0  0  0  0  0  0
   -1.3507   -2.0195    0.0000 C   0  0  0  0  0  0  0  0  0  0  0  0
   -2.1353   -1.7646    0.0000 C   0  0  0  0  0  0  0  0  0  0  0  0
   -2.3068   -0.9576    0.0000 C   0  0  0  0  0  0  0  0  0  0  0  0
   -3.0915   -0.7027    0.0000 F   0  0  0  0  0  0  0  0  0  0  0  0
   -1.6937   -0.4056    0.0000 C   0  0  0  0  0  0  0  0  0  0  0  0
   -0.9091   -0.6605    0.0000 C   0  0  0  0  0  0  0  0  0  0  0  0
   -0.2960   -0.1085    0.0000 F   0  0  0  0  0  0  0  0  0  0  0  0
  1  2  1  0  0  0  0
  2  3  2  0  0  0  0
  3  4  1  0  0  0  0
  4  5  2  0  0  0  0
  5  6  1  0  0  0  0
  2  6  1  0  0  0  0
  6  7  1  0  0  0  0
  7  8  2  0  0  0  0
  8  9  1  0  0  0  0
  9 10  2  0  0  0  0
 10 11  1  0  0  0  0
 10 12  1  0  0  0  0
 12 13  2  0  0  0  0
  7 13  1  0  0  0  0
 13 14  1  0  0  0  0
M  END
>  <Catalog ID>
Z995040720

>  <PlateID>
1198308-R-SPFL-18

>  <Well>
C02

>  <MW (desalted)>
196.157

>  <ClogP>
1.204

>  <HBD>
1

>  <TPSA>
56.730

>  <RotBonds>
1

$$$$

            

 17 19  0  0  0  0            999 V2000
    0.0000   -1.6500    0.0000 O   0  0  0  0  0  0  0  0  0  0  0  0
    0.7145   -1.2375    0.0000 C   0  0  0  0  0  0  0  0  0  0  0  0
    0.7145   -0.4125    0.0000 C   0  0  0  0  0  0  0  0  0  0  0  0
    1.4289    0.0000    0.0000 N   0  0  0  0  0  0  0  0  0  0  0  0
    1.4289    0.8250    0.0000 C   0  0  0  0  0  0  0  0  0  0  0  0
    0.7145    1.2375    0.0000 C   0  0  0  0  0  0  0  0  0  0  0  0
    0.7145    2.0625    0.0000 C   0  0  0  0  0  0  0  0  0  0  0  0
    1.4289    2.4750    0.0000 C   0  0  0  0  0  0  0  0  0  0  0  0
    2.1434    2.0625    0.0000 C   0  0  0  0  0  0  0  0  0  0  0  0
    2.1434    1.2375    0.0000 C   0  0  0  0  0  0  0  0  0  0  0  0
    2.1434   -0.4125    0.0000 C   0  0  0  0  0  0  0  0  0  0  0  0
    2.8579    0.0000    0.0000 C   0  0  0  0  0  0  0  0  0  0  0  0
    3.5724   -0.4125    0.0000 C   0  0  0  0  0  0  0  0  0  0  0  0
    3.5724   -1.2375    0.0000 C   0  0  0  0  0  0  0  0  0  0  0  0
    2.8579   -1.6500    0.0000 C   0  0  0  0  0  0  0  0  0  0  0  0
    2.1434   -1.2375    0.0000 C   0  0  0  0  0  0  0  0  0  0  0  0
    1.4289   -1.6500    0.0000 N   0  0  0  0  0  0  0  0  0  0  0  0
  1  2  2  0  0  0  0
  2  3  1  0  0  0  0
  3  4  1  0  0  0  0
  4  5  1  0  0  0  0
  5  6  2  0  0  0  0
  6  7  1  0  0  0  0
  7  8  2  0  0  0  0
  8  9  1  0  0  0  0
  9 10  2  0  0  0  0
  5 10  1  0  0  0  0
  4 11  1  0  0  0  0
 11 12  2  0  0  0  0
 12 13  1  0  0  0  0
 13 14  2  0  0  0  0
 14 15  1  0  0  0  0
 15 16  2  0  0  0  0
 11 16  1  0  0  0  0
 16 17  1  0  0  0  0
  2 17  1  0  0  0  0
M  END
>  <Catalog ID>
Z1317798682

>  <PlateID>
1198308-R-SPFL-18

>  <Well>
C03

>  <MW (desalted)>
224.258

>  <ClogP>
2.780

>  <HBD>
1

>  <TPSA>
32.340

>  <RotBonds>
1

$$$$

            

 11 11  0  0  0  0            999 V2000
    0.0000    2.4750    0.0000 C   0  0  0  0  0  0  0  0  0  0  0  0
    0.7145    2.0625    0.0000 O   0  0  0  0  0  0  0  0  0  0  0  0
    0.7145    1.2375    0.0000 C   0  0  0  0  0  0  0  0  0  0  0  0
    1.4289    0.8250    0.0000 C   0  0  0  0  0  0  0  0  0  0  0  0
    1.4289   -0.0000    0.0000 C   0  0  0  0  0  0  0  0  0  0  0  0
    0.7145   -0.4125    0.0000 C   0  0  0  0  0  0  0  0  0  0  0  0
    0.7145   -1.2375    0.0000 F   0  0  0  0  0  0  0  0  0  0  0  0
    0.0000    0.0000    0.0000 C   0  0  0  0  0  0  0  0  0  0  0  0
    0.0000    0.8250    0.0000 C   0  0  0  0  0  0  0  0  0  0  0  0
   -0.7145    1.2375    0.0000 C   0  0  0  0  0  0  0  0  0  0  0  0
   -0.7145    2.0625    0.0000 O   0  0  0  0  0  0  0  0  0  0  0  0
  1  2  1  0  0  0  0
  2  3  1  0  0  0  0
  3  4  2  0  0  0  0
  4  5  1  0  0  0  0
  5  6  2  0  0  0  0
  6  7  1  0  0  0  0
  6  8  1  0  0  0  0
  8  9  2  0  0  0  0
  3  9  1  0  0  0  0
  9 10  1  0  0  0  0
 10 11  1  0  0  0  0
M  END
>  <Catalog ID>
Z385370282

>  <PlateID>
1198308-R-SPFL-18

>  <Well>
C04

>  <MW (desalted)>
156.154

>  <ClogP>
1.306

>  <HBD>
1

>  <TPSA>
29.460

>  <RotBonds>
2

$$$$

            

 14 15  0  0  0  0            999 V2000
   -0.0398    0.1001    0.0000 F   0  0  0  0  0  0  0  0  0  0  0  0
    0.5436   -0.4833    0.0000 C   0  0  0  0  0  0  0  0  0  0  0  0
   -0.0398   -1.0666    0.0000 F   0  0  0  0  0  0  0  0  0  0  0  0
    1.1270    0.1001    0.0000 F   0  0  0  0  0  0  0  0  0  0  0  0
    1.1270   -1.0666    0.0000 C   0  0  0  0  0  0  0  0  0  0  0  0
    1.7103   -1.6500    0.0000 C   0  0  0  0  0  0  0  0  0  0  0  0
    1.1270   -2.2334    0.0000 C   0  0  0  0  0  0  0  0  0  0  0  0
    0.5436   -1.6500    0.0000 N   0  0  0  0  0  0  0  0  0  0  0  0
    1.7103   -0.4833    0.0000 C   0  0  0  0  0  0  0  0  0  0  0  0
    1.4968    0.3136    0.0000 C   0  0  0  0  0  0  0  0  0  0  0  0
    2.0802    0.8970    0.0000 C   0  0  0  0  0  0  0  0  0  0  0  0
    2.8771    0.6835    0.0000 C   0  0  0  0  0  0  0  0  0  0  0  0
    3.0906   -0.1134    0.0000 C   0  0  0  0  0  0  0  0  0  0  0  0
    2.5072   -0.6968    0.0000 C   0  0  0  0  0  0  0  0  0  0  0  0
  1  2  1  0  0  0  0
  2  3  1  0  0  0  0
  2  4  1  0  0  0  0
  2  5  1  0  0  0  0
  5  6  1  0  0  0  0
  6  7  1  0  0  0  0
  7  8  1  0  0  0  0
  5  8  1  0  0  0  0
  5  9  1  0  0  0  0
  9 10  2  0  0  0  0
 10 11  1  0  0  0  0
 11 12  2  0  0  0  0
 12 13  1  0  0  0  0
 13 14  2  0  0  0  0
  9 14  1  0  0  0  0
M  END
>  <Catalog ID>
Z3617561226

>  <PlateID>
1198308-R-SPFL-18

>  <Well>
C05

>  <MW (desalted)>
201.188

>  <ClogP>
2.268

>  <HBD>
1

>  <TPSA>
12.030

>  <RotBonds>
2

$$$$

            

 12 10  0  0  0  0            999 V2000
    0.0000    0.0000    0.0000 Cl  0  0  0  0  0  0  0  0  0  0  0  0
    2.0036    0.0000    0.0000 Cl  0  0  0  0  0  0  0  0  0  0  0  0
   -0.9760   -1.6500    0.0000 C   0  0  0  0  0  0  0  0  0  0  0  0
   -0.2615   -2.0625    0.0000 C   0  0  0  0  0  0  0  0  0  0  0  0
    0.4529   -1.6500    0.0000 C   0  0  0  0  0  0  0  0  0  0  0  0
   -0.2615   -2.8875    0.0000 C   0  0  0  0  0  0  0  0  0  0  0  0
    0.4059   -3.3724    0.0000 N   0  0  0  0  0  0  0  0  0  0  0  0
    0.1510   -4.1570    0.0000 C   0  0  0  0  0  0  0  0  0  0  0  0
    0.6359   -4.8245    0.0000 C   0  0  0  0  0  0  0  0  0  0  0  0
    1.4564   -4.7382    0.0000 N   0  0  0  0  0  0  0  0  0  0  0  0
   -0.6740   -4.1570    0.0000 C   0  0  0  0  0  0  0  0  0  0  0  0
   -0.9290   -3.3724    0.0000 S   0  0  0  0  0  0  0  0  0  0  0  0
  3  4  1  0  0  0  0
  4  5  1  0  0  0  0
  4  6  1  0  0  0  0
  6  7  2  0  0  0  0
  7  8  1  0  0  0  0
  8  9  1  0  0  0  0
  9 10  1  0  0  0  0
  8 11  2  0  0  0  0
 11 12  1  0  0  0  0
  6 12  1  0  0  0  0
M  END
>  <Catalog ID>
Z2724334982

>  <PlateID>
1198308-R-SPFL-18

>  <Well>
C06

>  <MW (desalted)>
156.249

>  <ClogP>
0.865

>  <HBD>
1

>  <TPSA>
38.910

>  <RotBonds>
2

$$$$

            

 11 11  0  0  0  0            999 V2000
    0.0000    4.1250    0.0000 O   0  0  0  0  0  0  0  0  0  0  0  0
    0.7145    3.7125    0.0000 C   0  0  0  0  0  0  0  0  0  0  0  0
    0.7145    2.8875    0.0000 C   0  0  0  0  0  0  0  0  0  0  0  0
    0.7145    2.0625    0.0000 C   0  0  0  0  0  0  0  0  0  0  0  0
    0.7145    1.2375    0.0000 C   0  0  0  0  0  0  0  0  0  0  0  0
    1.4289    0.8250    0.0000 C   0  0  0  0  0  0  0  0  0  0  0  0
    1.4289   -0.0000    0.0000 C   0  0  0  0  0  0  0  0  0  0  0  0
    0.7145   -0.4125    0.0000 C   0  0  0  0  0  0  0  0  0  0  0  0
    0.0000    0.0000    0.0000 C   0  0  0  0  0  0  0  0  0  0  0  0
    0.0000    0.8250    0.0000 C   0  0  0  0  0  0  0  0  0  0  0  0
   -0.7145    1.2375    0.0000 F   0  0  0  0  0  0  0  0  0  0  0  0
  1  2  1  0  0  0  0
  2  3  1  0  0  0  0
  3  4  3  0  0  0  0
  4  5  1  0  0  0  0
  5  6  2  0  0  0  0
  6  7  1  0  0  0  0
  7  8  2  0  0  0  0
  8  9  1  0  0  0  0
  9 10  2  0  0  0  0
  5 10  1  0  0  0  0
 10 11  1  0  0  0  0
M  END
>  <Catalog ID>
Z992241408

>  <PlateID>
1198308-R-SPFL-18

>  <Well>
C07

>  <MW (desalted)>
150.150

>  <ClogP>
1.097

>  <HBD>
1

>  <TPSA>
20.230

>  <RotBonds>
2

$$$$

            

  0  0  0     0  0            999 V3000
M  V30 BEGIN CTAB
M  V30 COUNTS 10 11 0 0 0
M  V30 BEGIN ATOM
M  V30 1 C 0.8805 -1.8221 0 0
M  V30 2 C 1.7857 -0.5762 0 0
M  V30 3 C 3.2504 -1.0521 0 0 CFG=2
M  V30 4 N 4.4544 -0.0919 0 0
M  V30 5 C 5.9558 -0.4346 0 0
M  V30 6 C 6.624 -1.8221 0 0
M  V30 7 C 5.9558 -3.2096 0 0
M  V30 8 O 4.4544 -3.5522 0 0
M  V30 9 C 3.2504 -2.5921 0 0 CFG=1
M  V30 10 C 1.7857 -3.068 0 0
M  V30 END ATOM
M  V30 BEGIN BOND
M  V30 1 1 1 2
M  V30 2 1 3 2 CFG=3
M  V30 3 1 3 4
M  V30 4 1 4 5
M  V30 5 1 5 6
M  V30 6 1 6 7
M  V30 7 1 7 8
M  V30 8 1 9 8
M  V30 9 1 3 9
M  V30 10 1 9 10 CFG=1
M  V30 11 1 1 10
M  V30 END BOND
M  V30 BEGIN COLLECTION
M  V30 MDLV30/STERAC1 ATOMS=(2 3 9)
M  V30 END COLLECTION
M  V30 END CTAB
M  END
>  <Catalog ID>
Z2309888335

>  <PlateID>
1198308-R-SPFL-18

>  <Well>
C08

>  <MW (desalted)>
141.211

>  <ClogP>
0.496

>  <HBD>
1

>  <TPSA>
21.260

>  <RotBonds>
0

$$$$

            

 12 13  0  0  0  0            999 V2000
    1.9341   -0.5333    0.0000 N   0  0  0  0  0  0  0  0  0  0  0  0
    1.9341   -1.3583    0.0000 C   0  0  0  0  0  0  0  0  0  0  0  0
    2.5175   -1.9417    0.0000 C   0  0  0  0  0  0  0  0  0  0  0  0
    1.9341   -2.5250    0.0000 O   0  0  0  0  0  0  0  0  0  0  0  0
    1.3508   -1.9417    0.0000 C   0  0  0  0  0  0  0  0  0  0  0  0
    0.5258   -1.9417    0.0000 C   0  0  0  0  0  0  0  0  0  0  0  0
    0.1133   -1.2272    0.0000 C   0  0  0  0  0  0  0  0  0  0  0  0
   -0.7117   -1.2272    0.0000 C   0  0  0  0  0  0  0  0  0  0  0  0
   -1.1242   -0.5127    0.0000 C   0  0  0  0  0  0  0  0  0  0  0  0
   -0.7117    0.2017    0.0000 C   0  0  0  0  0  0  0  0  0  0  0  0
    0.1133    0.2017    0.0000 C   0  0  0  0  0  0  0  0  0  0  0  0
    0.5258   -0.5127    0.0000 C   0  0  0  0  0  0  0  0  0  0  0  0
  1  2  1  0  0  0  0
  2  3  1  0  0  0  0
  3  4  1  0  0  0  0
  4  5  1  0  0  0  0
  2  5  1  0  0  0  0
  5  6  1  0  0  0  0
  6  7  1  0  0  0  0
  7  8  2  0  0  0  0
  8  9  1  0  0  0  0
  9 10  2  0  0  0  0
 10 11  1  0  0  0  0
 11 12  2  0  0  0  0
  7 12  1  0  0  0  0
M  END
>  <Catalog ID>
Z4373124367

>  <PlateID>
1198308-R-SPFL-18

>  <Well>
C09

>  <MW (desalted)>
163.216

>  <ClogP>
1.450

>  <HBD>
1

>  <TPSA>
35.250

>  <RotBonds>
2

$$$$

            

 11 12  0  0  0  0            999 V2000
    0.4956   -2.3562    0.0000 O   0  0  0  0  0  0  0  0  0  0  0  0
    0.2821   -1.5593    0.0000 C   0  0  0  0  0  0  0  0  0  0  0  0
   -0.5148   -1.3458    0.0000 O   0  0  0  0  0  0  0  0  0  0  0  0
    0.8655   -0.9760    0.0000 C   0  0  0  0  0  0  0  0  0  0  0  0
    0.8655   -0.1510    0.0000 C   0  0  0  0  0  0  0  0  0  0  0  0
    1.6905   -0.1510    0.0000 C   0  0  0  0  0  0  0  0  0  0  0  0
    2.4049    0.2615    0.0000 C   0  0  0  0  0  0  0  0  0  0  0  0
    3.1194   -0.1510    0.0000 C   0  0  0  0  0  0  0  0  0  0  0  0
    3.1194   -0.9760    0.0000 C   0  0  0  0  0  0  0  0  0  0  0  0
    2.4049   -1.3885    0.0000 C   0  0  0  0  0  0  0  0  0  0  0  0
    1.6905   -0.9760    0.0000 C   0  0  0  0  0  0  0  0  0  0  0  0
  1  2  1  0  0  0  0
  2  3  2  0  0  0  0
  2  4  1  0  0  0  0
  4  5  1  0  0  0  0
  5  6  1  0  0  0  0
  6  7  2  0  0  0  0
  7  8  1  0  0  0  0
  8  9  2  0  0  0  0
  9 10  1  0  0  0  0
 10 11  2  0  0  0  0
  4 11  1  0  0  0  0
  6 11  1  0  0  0  0
M  END
>  <Catalog ID>
Z1205493745

>  <PlateID>
1198308-R-SPFL-18

>  <Well>
C10

>  <MW (desalted)>
148.159

>  <ClogP>
1.419

>  <HBD>
1

>  <TPSA>
37.300

>  <RotBonds>
1

$$$$

            

 11 12  0  0  0  0            999 V2000
    1.2564   -0.1802    0.0000 C   0  0  0  0  0  0  0  0  0  0  0  0
    1.2564   -1.0052    0.0000 C   0  0  0  0  0  0  0  0  0  0  0  0
    1.9239   -1.4901    0.0000 N   0  0  0  0  0  0  0  0  0  0  0  0
    1.6689   -2.2748    0.0000 C   0  0  0  0  0  0  0  0  0  0  0  0
    0.8439   -2.2748    0.0000 S   0  0  0  0  0  0  0  0  0  0  0  0
    0.5890   -1.4901    0.0000 C   0  0  0  0  0  0  0  0  0  0  0  0
   -0.1956   -1.2352    0.0000 C   0  0  0  0  0  0  0  0  0  0  0  0
   -0.8631   -1.7201    0.0000 C   0  0  0  0  0  0  0  0  0  0  0  0
   -1.5305   -1.2352    0.0000 N   0  0  0  0  0  0  0  0  0  0  0  0
   -1.2756   -0.4506    0.0000 C   0  0  0  0  0  0  0  0  0  0  0  0
   -0.4506   -0.4506    0.0000 O   0  0  0  0  0  0  0  0  0  0  0  0
  1  2  1  0  0  0  0
  2  3  1  0  0  0  0
  3  4  2  0  0  0  0
  4  5  1  0  0  0  0
  5  6  1  0  0  0  0
  2  6  2  0  0  0  0
  6  7  1  0  0  0  0
  7  8  2  0  0  0  0
  8  9  1  0  0  0  0
  9 10  2  0  0  0  0
 10 11  1  0  0  0  0
  7 11  1  0  0  0  0
M  END
>  <Catalog ID>
Z1642264956

>  <PlateID>
1198308-R-SPFL-18

>  <Well>
C11

>  <MW (desalted)>
166.200

>  <ClogP>
0.759

>  <HBD>
0

>  <TPSA>
38.920

>  <RotBonds>
1

$$$$

            

 13 13  0  0  1  0            999 V2000
    0.0000    0.0000    0.0000 Cl  0  0  0  0  0  0  0  0  0  0  0  0
    2.7696    0.2237    0.0000 C   0  0  0  0  0  0  0  0  0  0  0  0
    2.7696   -0.6013    0.0000 C   0  0  1  0  0  0  0  0  0  0  0  0
    3.4371   -1.0863    0.0000 C   0  0  0  0  0  0  0  0  0  0  0  0
    3.1821   -1.8709    0.0000 C   0  0  0  0  0  0  0  0  0  0  0  0
    2.3571   -1.8709    0.0000 C   0  0  0  0  0  0  0  0  0  0  0  0
    2.1022   -1.0863    0.0000 N   0  0  0  0  0  0  0  0  0  0  0  0
    3.4841    0.6362    0.0000 C   0  0  0  0  0  0  0  0  0  0  0  0
    3.4841    1.4612    0.0000 C   0  0  0  0  0  0  0  0  0  0  0  0
    4.1986    1.8737    0.0000 C   0  0  0  0  0  0  0  0  0  0  0  0
    4.9131    1.4612    0.0000 C   0  0  0  0  0  0  0  0  0  0  0  0
    4.9131    0.6362    0.0000 C   0  0  0  0  0  0  0  0  0  0  0  0
    4.1986    0.2237    0.0000 C   0  0  0  0  0  0  0  0  0  0  0  0
  3  2  1  1  0  0  0
  3  4  1  0  0  0  0
  4  5  1  0  0  0  0
  5  6  1  0  0  0  0
  6  7  1  0  0  0  0
  3  7  1  0  0  0  0
  2  8  1  0  0  0  0
  8  9  2  0  0  0  0
  9 10  1  0  0  0  0
 10 11  2  0  0  0  0
 11 12  1  0  0  0  0
 12 13  2  0  0  0  0
  8 13  1  0  0  0  0
M  END
>  <Catalog ID>
Z3821694078

>  <PlateID>
1198308-R-SPFL-18

>  <Well>
D02

>  <MW (desalted)>
161.244

>  <ClogP>
2.463

>  <HBD>
1

>  <TPSA>
12.030

>  <RotBonds>
2

$$$$

            

 18 20  0  0  0  0            999 V2000
    1.4289   -4.9500    0.0000 Cl  0  0  0  0  0  0  0  0  0  0  0  0
    1.4289   -4.1250    0.0000 C   0  0  0  0  0  0  0  0  0  0  0  0
    0.7145   -3.7125    0.0000 C   0  0  0  0  0  0  0  0  0  0  0  0
    0.7145   -2.8875    0.0000 C   0  0  0  0  0  0  0  0  0  0  0  0
    1.4289   -2.4750    0.0000 C   0  0  0  0  0  0  0  0  0  0  0  0
    2.1434   -2.8875    0.0000 C   0  0  0  0  0  0  0  0  0  0  0  0
    2.1434   -3.7125    0.0000 C   0  0  0  0  0  0  0  0  0  0  0  0
    1.4289   -1.6500    0.0000 N   0  0  0  0  0  0  0  0  0  0  0  0
    0.7145   -1.2375    0.0000 C   0  0  0  0  0  0  0  0  0  0  0  0
    0.7145   -0.4125    0.0000 C   0  0  0  0  0  0  0  0  0  0  0  0
    0.0000    0.0000    0.0000 O   0  0  0  0  0  0  0  0  0  0  0  0
    1.4289    0.0000    0.0000 N   0  0  0  0  0  0  0  0  0  0  0  0
    2.1434   -0.4125    0.0000 C   0  0  0  0  0  0  0  0  0  0  0  0
    2.8579    0.0000    0.0000 C   0  0  0  0  0  0  0  0  0  0  0  0
    3.5724   -0.4125    0.0000 C   0  0  0  0  0  0  0  0  0  0  0  0
    3.5724   -1.2375    0.0000 C   0  0  0  0  0  0  0  0  0  0  0  0
    2.8579   -1.6500    0.0000 C   0  0  0  0  0  0  0  0  0  0  0  0
    2.1434   -1.2375    0.0000 C   0  0  0  0  0  0  0  0  0  0  0  0
  1  2  1  0  0  0  0
  2  3  2  0  0  0  0
  3  4  1  0  0  0  0
  4  5  2  0  0  0  0
  5  6  1  0  0  0  0
  6  7  2  0  0  0  0
  2  7  1  0  0  0  0
  5  8  1  0  0  0  0
  8  9  1  0  0  0  0
  9 10  1  0  0  0  0
 10 11  2  0  0  0  0
 10 12  1  0  0  0  0
 12 13  1  0  0  0  0
 13 14  2  0  0  0  0
 14 15  1  0  0  0  0
 15 16  2  0  0  0  0
 16 17  1  0  0  0  0
 17 18  2  0  0  0  0
  8 18  1  0  0  0  0
 13 18  1  0  0  0  0
M  END
>  <Catalog ID>
Z1317798672

>  <PlateID>
1198308-R-SPFL-18

>  <Well>
D03

>  <MW (desalted)>
258.703

>  <ClogP>
3.664

>  <HBD>
1

>  <TPSA>
32.340

>  <RotBonds>
1

$$$$

            

 11 12  0  0  0  0            999 V2000
    4.0668    2.3479    0.0000 C   0  0  0  0  0  0  0  0  0  0  0  0
    3.3523    1.9354    0.0000 C   0  0  0  0  0  0  0  0  0  0  0  0
    3.3523    1.1104    0.0000 C   0  0  0  0  0  0  0  0  0  0  0  0
    2.6378    0.6979    0.0000 C   0  0  0  0  0  0  0  0  0  0  0  0
    2.6378   -0.1271    0.0000 O   0  0  0  0  0  0  0  0  0  0  0  0
    1.9233    1.1104    0.0000 N   0  0  0  0  0  0  0  0  0  0  0  0
    1.1387    0.8555    0.0000 N   0  0  0  0  0  0  0  0  0  0  0  0
    0.6538    1.5229    0.0000 C   0  0  0  0  0  0  0  0  0  0  0  0
    1.1387    2.1904    0.0000 N   0  0  0  0  0  0  0  0  0  0  0  0
    1.9233    1.9354    0.0000 C   0  0  0  0  0  0  0  0  0  0  0  0
    2.6378    2.3479    0.0000 C   0  0  0  0  0  0  0  0  0  0  0  0
  1  2  1  0  0  0  0
  2  3  1  0  0  0  0
  3  4  2  0  0  0  0
  4  5  1  0  0  0  0
  4  6  1  0  0  0  0
  6  7  1  0  0  0  0
  7  8  2  0  0  0  0
  8  9  1  0  0  0  0
  9 10  2  0  0  0  0
  6 10  1  0  0  0  0
 10 11  1  0  0  0  0
  2 11  2  0  0  0  0
M  END
>  <Catalog ID>
Z2239077958

>  <PlateID>
1198308-R-SPFL-18

>  <Well>
D04

>  <MW (desalted)>
149.150

>  <ClogP>
1.087

>  <HBD>
1

>  <TPSA>
50.420

>  <RotBonds>
0

$$$$

            

 12 12  0  0  0  0            999 V2000
    0.7145    2.8875    0.0000 C   0  0  0  0  0  0  0  0  0  0  0  0
    0.7145    2.0625    0.0000 C   0  0  0  0  0  0  0  0  0  0  0  0
   -0.1105    2.0625    0.0000 C   0  0  0  0  0  0  0  0  0  0  0  0
    1.5395    2.0625    0.0000 C   0  0  0  0  0  0  0  0  0  0  0  0
    0.7145    1.2375    0.0000 C   0  0  0  0  0  0  0  0  0  0  0  0
    1.4289    0.8250    0.0000 C   0  0  0  0  0  0  0  0  0  0  0  0
    1.4289   -0.0000    0.0000 C   0  0  0  0  0  0  0  0  0  0  0  0
    0.7145   -0.4125    0.0000 C   0  0  0  0  0  0  0  0  0  0  0  0
    0.0000    0.0000    0.0000 C   0  0  0  0  0  0  0  0  0  0  0  0
   -0.7145   -0.4125    0.0000 C   0  0  0  0  0  0  0  0  0  0  0  0
   -0.7145   -1.2375    0.0000 N   0  0  0  0  0  0  0  0  0  0  0  0
    0.0000    0.8250    0.0000 N   0  0  0  0  0  0  0  0  0  0  0  0
  1  2  1  0  0  0  0
  2  3  1  0  0  0  0
  2  4  1  0  0  0  0
  2  5  1  0  0  0  0
  5  6  2  0  0  0  0
  6  7  1  0  0  0  0
  7  8  2  0  0  0  0
  8  9  1  0  0  0  0
  9 10  1  0  0  0  0
 10 11  1  0  0  0  0
  9 12  2  0  0  0  0
  5 12  1  0  0  0  0
M  END
>  <Catalog ID>
Z1255367979

>  <PlateID>
1198308-R-SPFL-18

>  <Well>
D05

>  <MW (desalted)>
164.247

>  <ClogP>
1.423

>  <HBD>
1

>  <TPSA>
38.910

>  <RotBonds>
2

$$$$

            

 13 13  0  0  1  0            999 V2000
    0.0000    0.0000    0.0000 Cl  0  0  0  0  0  0  0  0  0  0  0  0
    2.7696    0.2237    0.0000 C   0  0  0  0  0  0  0  0  0  0  0  0
    2.7696   -0.6013    0.0000 C   0  0  2  0  0  0  0  0  0  0  0  0
    3.4371   -1.0863    0.0000 C   0  0  0  0  0  0  0  0  0  0  0  0
    3.1821   -1.8709    0.0000 C   0  0  0  0  0  0  0  0  0  0  0  0
    2.3571   -1.8709    0.0000 C   0  0  0  0  0  0  0  0  0  0  0  0
    2.1022   -1.0863    0.0000 N   0  0  0  0  0  0  0  0  0  0  0  0
    3.4841    0.6362    0.0000 C   0  0  0  0  0  0  0  0  0  0  0  0
    3.4841    1.4612    0.0000 C   0  0  0  0  0  0  0  0  0  0  0  0
    4.1986    1.8737    0.0000 C   0  0  0  0  0  0  0  0  0  0  0  0
    4.9131    1.4612    0.0000 C   0  0  0  0  0  0  0  0  0  0  0  0
    4.9131    0.6362    0.0000 C   0  0  0  0  0  0  0  0  0  0  0  0
    4.1986    0.2237    0.0000 C   0  0  0  0  0  0  0  0  0  0  0  0
  3  2  1  6  0  0  0
  3  4  1  0  0  0  0
  4  5  1  0  0  0  0
  5  6  1  0  0  0  0
  6  7  1  0  0  0  0
  3  7  1  0  0  0  0
  2  8  1  0  0  0  0
  8  9  2  0  0  0  0
  9 10  1  0  0  0  0
 10 11  2  0  0  0  0
 11 12  1  0  0  0  0
 12 13  2  0  0  0  0
  8 13  1  0  0  0  0
M  END
>  <Catalog ID>
Z3244742843

>  <PlateID>
1198308-R-SPFL-18

>  <Well>
D06

>  <MW (desalted)>
161.244

>  <ClogP>
2.463

>  <HBD>
1

>  <TPSA>
12.030

>  <RotBonds>
2

$$$$

            

 15 15  0  0  0  0            999 V2000
    0.0000    0.0000    0.0000 Cl  0  0  0  0  0  0  0  0  0  0  0  0
    5.2739    0.7185    0.0000 F   0  0  0  0  0  0  0  0  0  0  0  0
    4.7436    0.0865    0.0000 C   0  0  0  0  0  0  0  0  0  0  0  0
    4.2133    0.7185    0.0000 F   0  0  0  0  0  0  0  0  0  0  0  0
    5.4581   -0.3260    0.0000 C   0  0  0  0  0  0  0  0  0  0  0  0
    5.4581   -1.1510    0.0000 N   0  0  0  0  0  0  0  0  0  0  0  0
    4.7436   -1.5635    0.0000 C   0  0  0  0  0  0  0  0  0  0  0  0
    4.0291   -1.1510    0.0000 C   0  0  0  0  0  0  0  0  0  0  0  0
    4.0291   -0.3260    0.0000 C   0  0  0  0  0  0  0  0  0  0  0  0
    3.3147    0.0865    0.0000 C   0  0  0  0  0  0  0  0  0  0  0  0
    2.6002   -0.3260    0.0000 C   0  0  0  0  0  0  0  0  0  0  0  0
    1.8857    0.0865    0.0000 C   0  0  0  0  0  0  0  0  0  0  0  0
    1.8857    0.9115    0.0000 C   0  0  0  0  0  0  0  0  0  0  0  0
    2.6002    1.3240    0.0000 C   0  0  0  0  0  0  0  0  0  0  0  0
    3.3147    0.9115    0.0000 C   0  0  0  0  0  0  0  0  0  0  0  0
  2  3  1  0  0  0  0
  3  4  1  0  0  0  0
  3  5  1  0  0  0  0
  5  6  1  0  0  0  0
  6  7  1  0  0  0  0
  7  8  1  0  0  0  0
  8  9  1  0  0  0  0
  3  9  1  0  0  0  0
  9 10  1  0  0  0  0
 10 11  2  0  0  0  0
 11 12  1  0  0  0  0
 12 13  2  0  0  0  0
 13 14  1  0  0  0  0
 14 15  2  0  0  0  0
 10 15  1  0  0  0  0
M  END
>  <Catalog ID>
Z3251694172

>  <PlateID>
1198308-R-SPFL-18

>  <Well>
D07

>  <MW (desalted)>
197.224

>  <ClogP>
2.629

>  <HBD>
1

>  <TPSA>
12.030

>  <RotBonds>
1

$$$$

            

 10 10  0  0  0  0            999 V2000
    0.7145    2.8875    0.0000 C   0  0  0  0  0  0  0  0  0  0  0  0
    0.7145    2.0625    0.0000 C   0  0  0  0  0  0  0  0  0  0  0  0
   -0.1105    2.0625    0.0000 C   0  0  0  0  0  0  0  0  0  0  0  0
    1.5395    2.0625    0.0000 N   0  0  0  0  0  0  0  0  0  0  0  0
    0.7145    1.2375    0.0000 C   0  0  0  0  0  0  0  0  0  0  0  0
    1.4289    0.8250    0.0000 C   0  0  0  0  0  0  0  0  0  0  0  0
    1.4289   -0.0000    0.0000 C   0  0  0  0  0  0  0  0  0  0  0  0
    0.7145   -0.4125    0.0000 C   0  0  0  0  0  0  0  0  0  0  0  0
    0.0000    0.0000    0.0000 N   0  0  0  0  0  0  0  0  0  0  0  0
    0.0000    0.8250    0.0000 C   0  0  0  0  0  0  0  0  0  0  0  0
  1  2  1  0  0  0  0
  2  3  1  0  0  0  0
  2  4  1  0  0  0  0
  2  5  1  0  0  0  0
  5  6  2  0  0  0  0
  6  7  1  0  0  0  0
  7  8  2  0  0  0  0
  8  9  1  0  0  0  0
  9 10  2  0  0  0  0
  5 10  1  0  0  0  0
M  END
>  <Catalog ID>
Z608482996

>  <PlateID>
1198308-R-SPFL-18

>  <Well>
D08

>  <MW (desalted)>
136.194

>  <ClogP>
0.305

>  <HBD>
1

>  <TPSA>
38.910

>  <RotBonds>
1

$$$$

            

 12 12  0  0  0  0            999 V2000
    0.0000    2.4750    0.0000 O   0  0  0  0  0  0  0  0  0  0  0  0
    0.7145    2.0625    0.0000 C   0  0  0  0  0  0  0  0  0  0  0  0
    1.4289    2.4750    0.0000 O   0  0  0  0  0  0  0  0  0  0  0  0
    0.7145    1.2375    0.0000 C   0  0  0  0  0  0  0  0  0  0  0  0
    1.4289    0.8250    0.0000 N   0  0  0  0  0  0  0  0  0  0  0  0
    1.4289   -0.0000    0.0000 C   0  0  0  0  0  0  0  0  0  0  0  0
    0.7145   -0.4125    0.0000 C   0  0  0  0  0  0  0  0  0  0  0  0
    0.0000    0.0000    0.0000 C   0  0  0  0  0  0  0  0  0  0  0  0
    0.0000    0.8250    0.0000 C   0  0  0  0  0  0  0  0  0  0  0  0
   -0.7145    1.2375    0.0000 C   0  0  0  0  0  0  0  0  0  0  0  0
   -0.7145    2.0625    0.0000 F   0  0  0  0  0  0  0  0  0  0  0  0
   -1.4289    0.8250    0.0000 F   0  0  0  0  0  0  0  0  0  0  0  0
  1  2  1  0  0  0  0
  2  3  2  0  0  0  0
  2  4  1  0  0  0  0
  4  5  2  0  0  0  0
  5  6  1  0  0  0  0
  6  7  2  0  0  0  0
  7  8  1  0  0  0  0
  8  9  2  0  0  0  0
  4  9  1  0  0  0  0
  9 10  1  0  0  0  0
 10 11  1  0  0  0  0
 10 12  1  0  0  0  0
M  END
>  <Catalog ID>
Z1255445571

>  <PlateID>
1198308-R-SPFL-18

>  <Well>
D09

>  <MW (desalted)>
173.117

>  <ClogP>
0.894

>  <HBD>
1

>  <TPSA>
50.190

>  <RotBonds>
2

$$$$

            

 15 17  0  0  0  0            999 V2000
    2.0142   -0.2492    0.0000 C   0  0  0  0  0  0  0  0  0  0  0  0
    1.3941   -0.0001    0.0000 N   0  0  0  0  0  0  0  0  0  0  0  0
    1.1624    0.9268    0.0000 C   0  0  0  0  0  0  0  0  0  0  0  0
    0.5174    0.4124    0.0000 C   0  0  0  0  0  0  0  0  0  0  0  0
    0.5174   -0.4126    0.0000 C   0  0  0  0  0  0  0  0  0  0  0  0
    1.1624   -0.9270    0.0000 C   0  0  0  0  0  0  0  0  0  0  0  0
    1.9667   -0.7434    0.0000 C   0  0  0  0  0  0  0  0  0  0  0  0
    2.3247   -0.0001    0.0000 N   0  0  0  0  0  0  0  0  0  0  0  0
    1.9667    0.7432    0.0000 C   0  0  0  0  0  0  0  0  0  0  0  0
    2.6316   -0.7146    0.0000 C   0  0  0  0  0  0  0  0  0  0  0  0
    3.3911   -0.3924    0.0000 C   0  0  0  0  0  0  0  0  0  0  0  0
    4.0499   -0.8890    0.0000 C   0  0  0  0  0  0  0  0  0  0  0  0
    3.9492   -1.7078    0.0000 C   0  0  0  0  0  0  0  0  0  0  0  0
    3.1897   -2.0300    0.0000 C   0  0  0  0  0  0  0  0  0  0  0  0
    2.5309   -1.5334    0.0000 C   0  0  0  0  0  0  0  0  0  0  0  0
  1  2  1  0  0  0  0
  2  3  1  0  0  0  0
  3  4  1  0  0  0  0
  4  5  1  0  0  0  0
  5  6  1  0  0  0  0
  2  6  1  0  0  0  0
  6  7  1  0  0  0  0
  7  8  1  0  0  0  0
  8  9  1  0  0  0  0
  3  9  1  0  0  0  0
  1 10  1  0  0  0  0
 10 11  2  0  0  0  0
 11 12  1  0  0  0  0
 12 13  2  0  0  0  0
 13 14  1  0  0  0  0
 14 15  2  0  0  0  0
 10 15  1  0  0  0  0
M  END
>  <Catalog ID>
Z1238833335

>  <PlateID>
1198308-R-SPFL-18

>  <Well>
D10

>  <MW (desalted)>
202.295

>  <ClogP>
2.189

>  <HBD>
1

>  <TPSA>
15.270

>  <RotBonds>
2

$$$$

            

 12 12  0  0  0  0            999 V2000
    0.0000    0.0000    0.0000 Cl  0  0  0  0  0  0  0  0  0  0  0  0
    3.6267    1.7250    0.0000 O   0  0  0  0  0  0  0  0  0  0  0  0
    4.3412    1.3125    0.0000 C   0  0  0  0  0  0  0  0  0  0  0  0
    4.3412    0.4875    0.0000 C   0  0  0  0  0  0  0  0  0  0  0  0
    5.0556    0.0750    0.0000 C   0  0  0  0  0  0  0  0  0  0  0  0
    5.0556   -0.7500    0.0000 C   0  0  0  0  0  0  0  0  0  0  0  0
    4.3412   -1.1625    0.0000 C   0  0  0  0  0  0  0  0  0  0  0  0
    3.6267   -0.7500    0.0000 C   0  0  0  0  0  0  0  0  0  0  0  0
    2.8421   -1.0049    0.0000 C   0  0  0  0  0  0  0  0  0  0  0  0
    2.3571   -0.3375    0.0000 C   0  0  0  0  0  0  0  0  0  0  0  0
    2.8421    0.3299    0.0000 N   0  0  0  0  0  0  0  0  0  0  0  0
    3.6267    0.0750    0.0000 C   0  0  0  0  0  0  0  0  0  0  0  0
  2  3  1  0  0  0  0
  3  4  1  0  0  0  0
  4  5  2  0  0  0  0
  5  6  1  0  0  0  0
  6  7  2  0  0  0  0
  7  8  1  0  0  0  0
  8  9  1  0  0  0  0
  9 10  1  0  0  0  0
 10 11  1  0  0  0  0
 11 12  1  0  0  0  0
  8 12  2  0  0  0  0
  4 12  1  0  0  0  0
M  END
>  <Catalog ID>
Z4554289244

>  <PlateID>
1198308-R-SPFL-18

>  <Well>
D11

>  <MW (desalted)>
149.190

>  <ClogP>
0.738

>  <HBD>
2

>  <TPSA>
32.260

>  <RotBonds>
1

$$$$

            

 10 10  0  0  0  0            999 V2000
    1.2822    2.3518    0.0000 C   0  0  0  0  0  0  0  0  0  0  0  0
    0.5678    1.9393    0.0000 C   0  0  0  0  0  0  0  0  0  0  0  0
    0.5678    1.1143    0.0000 C   0  0  0  0  0  0  0  0  0  0  0  0
    1.2352    0.6294    0.0000 C   0  0  0  0  0  0  0  0  0  0  0  0
    0.9803   -0.1553    0.0000 O   0  0  0  0  0  0  0  0  0  0  0  0
    0.1553   -0.1553    0.0000 N   0  0  0  0  0  0  0  0  0  0  0  0
   -0.0997    0.6294    0.0000 C   0  0  0  0  0  0  0  0  0  0  0  0
   -0.8843    0.8843    0.0000 C   0  0  0  0  0  0  0  0  0  0  0  0
   -1.4974    0.3323    0.0000 O   0  0  0  0  0  0  0  0  0  0  0  0
   -1.0558    1.6913    0.0000 O   0  0  0  0  0  0  0  0  0  0  0  0
  1  2  1  0  0  0  0
  2  3  1  0  0  0  0
  3  4  2  0  0  0  0
  4  5  1  0  0  0  0
  5  6  1  0  0  0  0
  6  7  2  0  0  0  0
  3  7  1  0  0  0  0
  7  8  1  0  0  0  0
  8  9  2  0  0  0  0
  8 10  1  0  0  0  0
M  END
>  <Catalog ID>
Z1813085213

>  <PlateID>
1198308-R-SPFL-18

>  <Well>
E02

>  <MW (desalted)>
141.125

>  <ClogP>
0.245

>  <HBD>
1

>  <TPSA>
63.330

>  <RotBonds>
2

$$$$

            

 10 10  0  0  0  0            999 V2000
    0.7145    2.0625    0.0000 C   0  0  0  0  0  0  0  0  0  0  0  0
    0.7145    1.2375    0.0000 C   0  0  0  0  0  0  0  0  0  0  0  0
    1.4289    0.8250    0.0000 N   0  0  0  0  0  0  0  0  0  0  0  0
    1.4289   -0.0000    0.0000 C   0  0  0  0  0  0  0  0  0  0  0  0
    2.1434   -0.4125    0.0000 C   0  0  0  0  0  0  0  0  0  0  0  0
    0.7145   -0.4125    0.0000 C   0  0  0  0  0  0  0  0  0  0  0  0
    0.7145   -1.2375    0.0000 N   0  0  0  0  0  0  0  0  0  0  0  0
    0.0000    0.0000    0.0000 N   0  0  0  0  0  0  0  0  0  0  0  0
    0.0000    0.8250    0.0000 C   0  0  0  0  0  0  0  0  0  0  0  0
   -0.7145    1.2375    0.0000 C   0  0  0  0  0  0  0  0  0  0  0  0
  1  2  1  0  0  0  0
  2  3  2  0  0  0  0
  3  4  1  0  0  0  0
  4  5  1  0  0  0  0
  4  6  2  0  0  0  0
  6  7  1  0  0  0  0
  6  8  1  0  0  0  0
  8  9  2  0  0  0  0
  2  9  1  0  0  0  0
  9 10  1  0  0  0  0
M  END
>  <Catalog ID>
Z1203587263

>  <PlateID>
1198308-R-SPFL-18

>  <Well>
E03

>  <MW (desalted)>
137.182

>  <ClogP>
1.073

>  <HBD>
1

>  <TPSA>
51.800

>  <RotBonds>
0

$$$$

            

 12 12  0  0  0  0            999 V2000
    0.0000    4.1250    0.0000 F   0  0  0  0  0  0  0  0  0  0  0  0
    0.0000    3.3000    0.0000 C   0  0  0  0  0  0  0  0  0  0  0  0
   -0.8250    3.3000    0.0000 F   0  0  0  0  0  0  0  0  0  0  0  0
    0.8250    3.3000    0.0000 F   0  0  0  0  0  0  0  0  0  0  0  0
    0.0000    2.4750    0.0000 C   0  0  0  0  0  0  0  0  0  0  0  0
    0.7145    2.0625    0.0000 N   0  0  0  0  0  0  0  0  0  0  0  0
    0.7145    1.2375    0.0000 C   0  0  0  0  0  0  0  0  0  0  0  0
    1.4289    0.8250    0.0000 C   0  0  0  0  0  0  0  0  0  0  0  0
    1.4289   -0.0000    0.0000 C   0  0  0  0  0  0  0  0  0  0  0  0
    0.7145   -0.4125    0.0000 C   0  0  0  0  0  0  0  0  0  0  0  0
    0.0000    0.0000    0.0000 C   0  0  0  0  0  0  0  0  0  0  0  0
    0.0000    0.8250    0.0000 N   0  0  0  0  0  0  0  0  0  0  0  0
  1  2  1  0  0  0  0
  2  3  1  0  0  0  0
  2  4  1  0  0  0  0
  2  5  1  0  0  0  0
  5  6  1  0  0  0  0
  6  7  1  0  0  0  0
  7  8  2  0  0  0  0
  8  9  1  0  0  0  0
  9 10  2  0  0  0  0
 10 11  1  0  0  0  0
 11 12  2  0  0  0  0
  7 12  1  0  0  0  0
M  END
>  <Catalog ID>
Z359300396

>  <PlateID>
1198308-R-SPFL-18

>  <Well>
E04

>  <MW (desalted)>
176.139

>  <ClogP>
1.909

>  <HBD>
1

>  <TPSA>
24.920

>  <RotBonds>
3

$$$$

            

 11 12  0  0  0  0            999 V2000
   -0.1712   -0.6979    0.0000 N   0  0  0  0  0  0  0  0  0  0  0  0
    0.6538   -0.6979    0.0000 C   0  0  0  0  0  0  0  0  0  0  0  0
    1.1387   -0.0305    0.0000 N   0  0  0  0  0  0  0  0  0  0  0  0
    1.9233   -0.2854    0.0000 C   0  0  0  0  0  0  0  0  0  0  0  0
    2.6378    0.1271    0.0000 C   0  0  0  0  0  0  0  0  0  0  0  0
    3.3523   -0.2854    0.0000 C   0  0  0  0  0  0  0  0  0  0  0  0
    4.0668    0.1271    0.0000 Cl  0  0  0  0  0  0  0  0  0  0  0  0
    3.3523   -1.1104    0.0000 N   0  0  0  0  0  0  0  0  0  0  0  0
    2.6378   -1.5229    0.0000 C   0  0  0  0  0  0  0  0  0  0  0  0
    1.9233   -1.1104    0.0000 C   0  0  0  0  0  0  0  0  0  0  0  0
    1.1387   -1.3654    0.0000 S   0  0  0  0  0  0  0  0  0  0  0  0
  1  2  1  0  0  0  0
  2  3  2  0  0  0  0
  3  4  1  0  0  0  0
  4  5  2  0  0  0  0
  5  6  1  0  0  0  0
  6  7  1  0  0  0  0
  6  8  2  0  0  0  0
  8  9  1  0  0  0  0
  9 10  2  0  0  0  0
  4 10  1  0  0  0  0
 10 11  1  0  0  0  0
  2 11  1  0  0  0  0
M  END
>  <Catalog ID>
Z1255497386

>  <PlateID>
1198308-R-SPFL-18

>  <Well>
E05

>  <MW (desalted)>
185.634

>  <ClogP>
1.644

>  <HBD>
1

>  <TPSA>
51.800

>  <RotBonds>
0

$$$$

            

 12 12  0  0  0  0            999 V2000
    0.7145    2.0625    0.0000 O   0  0  0  0  0  0  0  0  0  0  0  0
    0.7145    1.2375    0.0000 C   0  0  0  0  0  0  0  0  0  0  0  0
    1.4289    0.8250    0.0000 C   0  0  0  0  0  0  0  0  0  0  0  0
    1.4289   -0.0000    0.0000 C   0  0  0  0  0  0  0  0  0  0  0  0
    0.7145   -0.4125    0.0000 C   0  0  0  0  0  0  0  0  0  0  0  0
    0.7145   -1.2375    0.0000 O   0  0  0  0  0  0  0  0  0  0  0  0
    0.0000    0.0000    0.0000 N   0  0  0  0  0  0  0  0  0  0  0  0
   -0.7145   -0.4125    0.0000 C   0  0  0  0  0  0  0  0  0  0  0  0
   -1.4289    0.0000    0.0000 C   0  0  0  0  0  0  0  0  0  0  0  0
   -2.1434   -0.4125    0.0000 C   0  0  0  0  0  0  0  0  0  0  0  0
    0.0000    0.8250    0.0000 C   0  0  0  0  0  0  0  0  0  0  0  0
   -0.7145    1.2375    0.0000 O   0  0  0  0  0  0  0  0  0  0  0  0
  1  2  1  0  0  0  0
  2  3  1  0  0  0  0
  3  4  1  0  0  0  0
  4  5  1  0  0  0  0
  5  6  2  0  0  0  0
  5  7  1  0  0  0  0
  7  8  1  0  0  0  0
  8  9  1  0  0  0  0
  9 10  2  0  0  0  0
  7 11  1  0  0  0  0
  2 11  1  0  0  0  0
 11 12  2  0  0  0  0
M  END
>  <Catalog ID>
Z2050514994

>  <PlateID>
1198308-R-SPFL-18

>  <Well>
E06

>  <MW (desalted)>
169.178

>  <ClogP>
0.169

>  <HBD>
1

>  <TPSA>
57.610

>  <RotBonds>
2

$$$$

            

 13 14  0  0  0  0            999 V2000
    0.7145   -2.8875    0.0000 C   0  0  0  0  0  0  0  0  0  0  0  0
    1.4289   -2.4750    0.0000 O   0  0  0  0  0  0  0  0  0  0  0  0
    1.4289   -1.6500    0.0000 C   0  0  0  0  0  0  0  0  0  0  0  0
    0.7145   -1.2375    0.0000 C   0  0  0  0  0  0  0  0  0  0  0  0
    0.7145   -0.4125    0.0000 C   0  0  0  0  0  0  0  0  0  0  0  0
    1.4289    0.0000    0.0000 C   0  0  0  0  0  0  0  0  0  0  0  0
    2.1434   -0.4125    0.0000 C   0  0  0  0  0  0  0  0  0  0  0  0
    2.8579    0.0000    0.0000 N   0  0  0  0  0  0  0  0  0  0  0  0
    3.5724   -0.4125    0.0000 C   0  0  0  0  0  0  0  0  0  0  0  0
    3.5724   -1.2375    0.0000 C   0  0  0  0  0  0  0  0  0  0  0  0
    2.8579   -1.6500    0.0000 C   0  0  0  0  0  0  0  0  0  0  0  0
    2.8579   -2.4750    0.0000 Cl  0  0  0  0  0  0  0  0  0  0  0  0
    2.1434   -1.2375    0.0000 C   0  0  0  0  0  0  0  0  0  0  0  0
  1  2  1  0  0  0  0
  2  3  1  0  0  0  0
  3  4  2  0  0  0  0
  4  5  1  0  0  0  0
  5  6  2  0  0  0  0
  6  7  1  0  0  0  0
  7  8  2  0  0  0  0
  8  9  1  0  0  0  0
  9 10  2  0  0  0  0
 10 11  1  0  0  0  0
 11 12  1  0  0  0  0
 11 13  2  0  0  0  0
  3 13  1  0  0  0  0
  7 13  1  0  0  0  0
M  END
>  <Catalog ID>
Z1198176134

>  <PlateID>
1198308-R-SPFL-18

>  <Well>
E07

>  <MW (desalted)>
193.630

>  <ClogP>
3.074

>  <HBD>
0

>  <TPSA>
22.120

>  <RotBonds>
1

$$$$

            

  0  0  0     0  0            999 V3000
M  V30 BEGIN CTAB
M  V30 COUNTS 13 14 0 0 0
M  V30 BEGIN ATOM
M  V30 1 C 1.3337 -0.77 0 0
M  V30 2 C 1.3337 -2.31 0 0 CFG=2
M  V30 3 C 2.6674 -3.08 0 0
M  V30 4 N 2.6674 -4.62 0 0
M  V30 5 C 1.3337 -5.39 0 0 CFG=1
M  V30 6 C 0 -4.62 0 0
M  V30 7 O 0 -3.08 0 0
M  V30 8 C 1.3337 -6.93 0 0
M  V30 9 C 2.6674 -7.7 0 0
M  V30 10 C 2.6674 -9.24 0 0
M  V30 11 C 1.3337 -10.01 0 0
M  V30 12 C 0 -9.24 0 0
M  V30 13 C 0 -7.7 0 0
M  V30 END ATOM
M  V30 BEGIN BOND
M  V30 1 1 2 1 CFG=3
M  V30 2 1 2 3
M  V30 3 1 3 4
M  V30 4 1 5 4
M  V30 5 1 5 6
M  V30 6 1 6 7
M  V30 7 1 2 7
M  V30 8 1 5 8 CFG=3
M  V30 9 2 8 9
M  V30 10 1 9 10
M  V30 11 2 10 11
M  V30 12 1 11 12
M  V30 13 2 12 13
M  V30 14 1 8 13
M  V30 END BOND
M  V30 BEGIN COLLECTION
M  V30 MDLV30/STERAC1 ATOMS=(2 2 5)
M  V30 END COLLECTION
M  V30 END CTAB
M  END
>  <Catalog ID>
Z4403738117

>  <PlateID>
1198308-R-SPFL-18

>  <Well>
E08

>  <MW (desalted)>
177.243

>  <ClogP>
1.669

>  <HBD>
1

>  <TPSA>
21.260

>  <RotBonds>
1

$$$$

            

 14 15  0  0  0  0            999 V2000
   -0.0980   -1.0942    0.0000 C   0  0  0  0  0  0  0  0  0  0  0  0
    0.7145   -1.2375    0.0000 C   0  0  0  0  0  0  0  0  0  0  0  0
    0.4323   -2.0127    0.0000 C   0  0  0  0  0  0  0  0  0  0  0  0
    0.7145   -0.4125    0.0000 C   0  0  0  0  0  0  0  0  0  0  0  0
    1.4289    0.0000    0.0000 C   0  0  0  0  0  0  0  0  0  0  0  0
    2.1434   -0.4125    0.0000 C   0  0  0  0  0  0  0  0  0  0  0  0
    2.8579    0.0000    0.0000 N   0  0  0  0  0  0  0  0  0  0  0  0
    3.5724   -0.4125    0.0000 C   0  0  0  0  0  0  0  0  0  0  0  0
    4.2868   -0.0000    0.0000 Cl  0  0  0  0  0  0  0  0  0  0  0  0
    3.5724   -1.2375    0.0000 C   0  0  0  0  0  0  0  0  0  0  0  0
    2.8579   -1.6500    0.0000 C   0  0  0  0  0  0  0  0  0  0  0  0
    2.1434   -1.2375    0.0000 C   0  0  0  0  0  0  0  0  0  0  0  0
    1.4289   -1.6500    0.0000 C   0  0  0  0  0  0  0  0  0  0  0  0
    1.4289   -2.4750    0.0000 O   0  0  0  0  0  0  0  0  0  0  0  0
  1  2  1  0  0  0  0
  2  3  1  0  0  0  0
  2  4  1  0  0  0  0
  4  5  1  0  0  0  0
  5  6  1  0  0  0  0
  6  7  2  0  0  0  0
  7  8  1  0  0  0  0
  8  9  1  0  0  0  0
  8 10  2  0  0  0  0
 10 11  1  0  0  0  0
 11 12  2  0  0  0  0
  6 12  1  0  0  0  0
 12 13  1  0  0  0  0
  2 13  1  0  0  0  0
 13 14  2  0  0  0  0
M  END
>  <Catalog ID>
Z2718935669

>  <PlateID>
1198308-R-SPFL-18

>  <Well>
E09

>  <MW (desalted)>
209.672

>  <ClogP>
2.812

>  <HBD>
0

>  <TPSA>
29.960

>  <RotBonds>
0

$$$$

            

 16 17  0  0  0  0            999 V2000
    0.7145   -0.4125    0.0000 C   0  0  0  0  0  0  0  0  0  0  0  0
    1.2448   -1.0445    0.0000 C   0  0  0  0  0  0  0  0  0  0  0  0
    1.9592   -1.4570    0.0000 C   0  0  0  0  0  0  0  0  0  0  0  0
    1.9592   -2.2820    0.0000 N   0  0  0  0  0  0  0  0  0  0  0  0
    1.2448   -2.6945    0.0000 C   0  0  0  0  0  0  0  0  0  0  0  0
    0.5303   -2.2820    0.0000 C   0  0  0  0  0  0  0  0  0  0  0  0
    0.5303   -1.4570    0.0000 O   0  0  0  0  0  0  0  0  0  0  0  0
    2.6737   -2.6945    0.0000 C   0  0  0  0  0  0  0  0  0  0  0  0
    2.6737   -3.5195    0.0000 O   0  0  0  0  0  0  0  0  0  0  0  0
    3.3882   -2.2820    0.0000 N   0  0  0  0  0  0  0  0  0  0  0  0
    1.7751   -0.4125    0.0000 C   0  0  0  0  0  0  0  0  0  0  0  0
    1.4929    0.3627    0.0000 C   0  0  0  0  0  0  0  0  0  0  0  0
    2.0232    0.9947    0.0000 C   0  0  0  0  0  0  0  0  0  0  0  0
    2.8357    0.8515    0.0000 C   0  0  0  0  0  0  0  0  0  0  0  0
    3.1178    0.0762    0.0000 C   0  0  0  0  0  0  0  0  0  0  0  0
    2.5875   -0.5558    0.0000 C   0  0  0  0  0  0  0  0  0  0  0  0
  1  2  1  0  0  0  0
  2  3  1  0  0  0  0
  3  4  1  0  0  0  0
  4  5  1  0  0  0  0
  5  6  1  0  0  0  0
  6  7  1  0  0  0  0
  2  7  1  0  0  0  0
  4  8  1  0  0  0  0
  8  9  2  0  0  0  0
  8 10  1  0  0  0  0
  2 11  1  0  0  0  0
 11 12  2  0  0  0  0
 12 13  1  0  0  0  0
 13 14  2  0  0  0  0
 14 15  1  0  0  0  0
 15 16  2  0  0  0  0
 11 16  1  0  0  0  0
M  END
>  <Catalog ID>
Z1416373857

>  <PlateID>
1198308-R-SPFL-18

>  <Well>
E10

>  <MW (desalted)>
220.268

>  <ClogP>
0.458

>  <HBD>
1

>  <TPSA>
55.560

>  <RotBonds>
1

$$$$

            

 14 14  0  0  0  0            999 V2000
    0.0000    0.0000    0.0000 Cl  0  0  0  0  0  0  0  0  0  0  0  0
    3.5129    2.0569    0.0000 C   0  0  0  0  0  0  0  0  0  0  0  0
    4.0273    1.4119    0.0000 C   0  0  0  0  0  0  0  0  0  0  0  0
    3.8437    0.6076    0.0000 C   0  0  0  0  0  0  0  0  0  0  0  0
    3.1004    0.2496    0.0000 C   0  0  0  0  0  0  0  0  0  0  0  0
    2.3571    0.6076    0.0000 C   0  0  0  0  0  0  0  0  0  0  0  0
    2.1736    1.4119    0.0000 N   0  0  0  0  0  0  0  0  0  0  0  0
    2.6879    2.0569    0.0000 C   0  0  0  0  0  0  0  0  0  0  0  0
    3.1004   -0.5754    0.0000 C   0  0  0  0  0  0  0  0  0  0  0  0
    3.8149   -0.9879    0.0000 C   0  0  0  0  0  0  0  0  0  0  0  0
    3.8149   -1.8129    0.0000 C   0  0  0  0  0  0  0  0  0  0  0  0
    3.1004   -2.2254    0.0000 C   0  0  0  0  0  0  0  0  0  0  0  0
    2.3860   -1.8129    0.0000 C   0  0  0  0  0  0  0  0  0  0  0  0
    2.3860   -0.9879    0.0000 C   0  0  0  0  0  0  0  0  0  0  0  0
  2  3  1  0  0  0  0
  3  4  1  0  0  0  0
  4  5  1  0  0  0  0
  5  6  1  0  0  0  0
  6  7  1  0  0  0  0
  7  8  1  0  0  0  0
  2  8  1  0  0  0  0
  5  9  1  0  0  0  0
  9 10  2  0  0  0  0
 10 11  1  0  0  0  0
 11 12  2  0  0  0  0
 12 13  1  0  0  0  0
 13 14  2  0  0  0  0
  9 14  1  0  0  0  0
M  END
>  <Catalog ID>
Z2310707785

>  <PlateID>
1198308-R-SPFL-18

>  <Well>
E11

>  <MW (desalted)>
175.270

>  <ClogP>
3.052

>  <HBD>
1

>  <TPSA>
12.030

>  <RotBonds>
1

$$$$

            

 15 16  0  0  0  0            999 V2000
    0.7145   -0.4125    0.0000 N   0  0  0  0  0  0  0  0  0  0  0  0
    0.7145   -1.2375    0.0000 C   0  0  0  0  0  0  0  0  0  0  0  0
    1.4289   -1.6500    0.0000 C   0  0  0  0  0  0  0  0  0  0  0  0
    1.4289   -2.4750    0.0000 C   0  0  0  0  0  0  0  0  0  0  0  0
    0.7145   -2.8875    0.0000 C   0  0  0  0  0  0  0  0  0  0  0  0
    0.7145   -3.7125    0.0000 C   0  0  0  0  0  0  0  0  0  0  0  0
    0.7145   -4.5375    0.0000 N   0  0  0  0  0  0  0  0  0  0  0  0
    0.0000   -2.4750    0.0000 C   0  0  0  0  0  0  0  0  0  0  0  0
    0.0000   -1.6500    0.0000 C   0  0  0  0  0  0  0  0  0  0  0  0
   -0.7145   -2.8875    0.0000 C   0  0  0  0  0  0  0  0  0  0  0  0
   -0.7145   -3.7125    0.0000 C   0  0  0  0  0  0  0  0  0  0  0  0
   -1.4289   -4.1250    0.0000 C   0  0  0  0  0  0  0  0  0  0  0  0
   -2.1434   -3.7125    0.0000 N   0  0  0  0  0  0  0  0  0  0  0  0
   -2.1434   -2.8875    0.0000 C   0  0  0  0  0  0  0  0  0  0  0  0
   -1.4289   -2.4750    0.0000 C   0  0  0  0  0  0  0  0  0  0  0  0
  1  2  1  0  0  0  0
  2  3  2  0  0  0  0
  3  4  1  0  0  0  0
  4  5  2  0  0  0  0
  5  6  1  0  0  0  0
  6  7  3  0  0  0  0
  5  8  1  0  0  0  0
  8  9  2  0  0  0  0
  2  9  1  0  0  0  0
  8 10  1  0  0  0  0
 10 11  2  0  0  0  0
 11 12  1  0  0  0  0
 12 13  2  0  0  0  0
 13 14  1  0  0  0  0
 14 15  2  0  0  0  0
 10 15  1  0  0  0  0
M  END
>  <Catalog ID>
Z1255463372

>  <PlateID>
1198308-R-SPFL-18

>  <Well>
F02

>  <MW (desalted)>
195.220

>  <ClogP>
1.464

>  <HBD>
1

>  <TPSA>
62.700

>  <RotBonds>
1

$$$$

            

 10 11  0  0  0  0            999 V2000
   -0.1712   -0.6979    0.0000 O   0  0  0  0  0  0  0  0  0  0  0  0
    0.6538   -0.6979    0.0000 C   0  0  0  0  0  0  0  0  0  0  0  0
    1.1387   -0.0305    0.0000 N   0  0  0  0  0  0  0  0  0  0  0  0
    1.9233   -0.2854    0.0000 C   0  0  0  0  0  0  0  0  0  0  0  0
    2.6378    0.1271    0.0000 C   0  0  0  0  0  0  0  0  0  0  0  0
    3.3523   -0.2854    0.0000 N   0  0  0  0  0  0  0  0  0  0  0  0
    3.3523   -1.1104    0.0000 C   0  0  0  0  0  0  0  0  0  0  0  0
    2.6378   -1.5229    0.0000 C   0  0  0  0  0  0  0  0  0  0  0  0
    1.9233   -1.1104    0.0000 C   0  0  0  0  0  0  0  0  0  0  0  0
    1.1387   -1.3654    0.0000 O   0  0  0  0  0  0  0  0  0  0  0  0
  1  2  2  0  0  0  0
  2  3  1  0  0  0  0
  3  4  1  0  0  0  0
  4  5  2  0  0  0  0
  5  6  1  0  0  0  0
  6  7  2  0  0  0  0
  7  8  1  0  0  0  0
  8  9  2  0  0  0  0
  4  9  1  0  0  0  0
  9 10  1  0  0  0  0
  2 10  1  0  0  0  0
M  END
>  <Catalog ID>
Z1509173044

>  <PlateID>
1198308-R-SPFL-18

>  <Well>
F03

>  <MW (desalted)>
136.108

>  <ClogP>
-0.339

>  <HBD>
1

>  <TPSA>
51.220

>  <RotBonds>
0

$$$$

            

 14 13  0  0  0  0            999 V2000
    0.0000    0.0000    0.0000 Cl  0  0  0  0  0  0  0  0  0  0  0  0
    2.0036    0.0000    0.0000 Cl  0  0  0  0  0  0  0  0  0  0  0  0
   -2.7916   -3.1895    0.0000 N   0  0  0  0  0  0  0  0  0  0  0  0
   -1.9666   -3.1895    0.0000 C   0  0  0  0  0  0  0  0  0  0  0  0
   -1.5541   -2.4750    0.0000 C   0  0  0  0  0  0  0  0  0  0  0  0
   -0.7291   -2.4750    0.0000 N   0  0  0  0  0  0  0  0  0  0  0  0
   -0.2442   -1.8076    0.0000 C   0  0  0  0  0  0  0  0  0  0  0  0
    0.5405   -2.0625    0.0000 C   0  0  0  0  0  0  0  0  0  0  0  0
    1.2549   -1.6500    0.0000 C   0  0  0  0  0  0  0  0  0  0  0  0
    1.9694   -2.0625    0.0000 C   0  0  0  0  0  0  0  0  0  0  0  0
    1.9694   -2.8875    0.0000 C   0  0  0  0  0  0  0  0  0  0  0  0
    1.2549   -3.3000    0.0000 C   0  0  0  0  0  0  0  0  0  0  0  0
    0.5405   -2.8875    0.0000 C   0  0  0  0  0  0  0  0  0  0  0  0
   -0.2442   -3.1424    0.0000 C   0  0  0  0  0  0  0  0  0  0  0  0
  3  4  1  0  0  0  0
  4  5  1  0  0  0  0
  5  6  1  0  0  0  0
  6  7  1  0  0  0  0
  7  8  1  0  0  0  0
  8  9  2  0  0  0  0
  9 10  1  0  0  0  0
 10 11  2  0  0  0  0
 11 12  1  0  0  0  0
 12 13  2  0  0  0  0
  8 13  1  0  0  0  0
 13 14  1  0  0  0  0
  6 14  1  0  0  0  0
M  END
>  <Catalog ID>
Z823287506

>  <PlateID>
1198308-R-SPFL-18

>  <Well>
F04

>  <MW (desalted)>
162.232

>  <ClogP>
0.984

>  <HBD>
1

>  <TPSA>
29.260

>  <RotBonds>
2

$$$$

            

 13 14  0  0  0  0            999 V2000
    0.0000   -0.0000    0.0000 F   0  0  0  0  0  0  0  0  0  0  0  0
    0.7145   -0.4125    0.0000 C   0  0  0  0  0  0  0  0  0  0  0  0
    1.4289    0.0000    0.0000 C   0  0  0  0  0  0  0  0  0  0  0  0
    2.1434   -0.4125    0.0000 C   0  0  0  0  0  0  0  0  0  0  0  0
    2.8579    0.0000    0.0000 C   0  0  0  0  0  0  0  0  0  0  0  0
    2.8579    0.8250    0.0000 Cl  0  0  0  0  0  0  0  0  0  0  0  0
    3.5724   -0.4125    0.0000 C   0  0  0  0  0  0  0  0  0  0  0  0
    3.5724   -1.2375    0.0000 C   0  0  0  0  0  0  0  0  0  0  0  0
    2.8579   -1.6500    0.0000 N   0  0  0  0  0  0  0  0  0  0  0  0
    2.1434   -1.2375    0.0000 C   0  0  0  0  0  0  0  0  0  0  0  0
    1.4289   -1.6500    0.0000 C   0  0  0  0  0  0  0  0  0  0  0  0
    0.7145   -1.2375    0.0000 C   0  0  0  0  0  0  0  0  0  0  0  0
    0.0000   -1.6500    0.0000 Cl  0  0  0  0  0  0  0  0  0  0  0  0
  1  2  1  0  0  0  0
  2  3  2  0  0  0  0
  3  4  1  0  0  0  0
  4  5  2  0  0  0  0
  5  6  1  0  0  0  0
  5  7  1  0  0  0  0
  7  8  2  0  0  0  0
  8  9  1  0  0  0  0
  9 10  2  0  0  0  0
  4 10  1  0  0  0  0
 10 11  1  0  0  0  0
 11 12  2  0  0  0  0
  2 12  1  0  0  0  0
 12 13  1  0  0  0  0
M  END
>  <Catalog ID>
Z1269131312

>  <PlateID>
1198308-R-SPFL-18

>  <Well>
F05

>  <MW (desalted)>
216.039

>  <ClogP>
3.712

>  <HBD>
0

>  <TPSA>
12.890

>  <RotBonds>
0

$$$$

            

  9  9  0  0  0  0            999 V2000
    0.7145    2.0625    0.0000 C   0  0  0  0  0  0  0  0  0  0  0  0
    0.7145    1.2375    0.0000 C   0  0  0  0  0  0  0  0  0  0  0  0
    1.4289    0.8250    0.0000 N   0  0  0  0  0  0  0  0  0  0  0  0
    1.4289   -0.0000    0.0000 C   0  0  0  0  0  0  0  0  0  0  0  0
    0.7145   -0.4125    0.0000 C   0  0  0  0  0  0  0  0  0  0  0  0
    0.7145   -1.2375    0.0000 C   0  0  0  0  0  0  0  0  0  0  0  0
    0.7145   -2.0625    0.0000 C   0  0  0  0  0  0  0  0  0  0  0  0
    0.0000    0.0000    0.0000 C   0  0  0  0  0  0  0  0  0  0  0  0
    0.0000    0.8250    0.0000 N   0  0  0  0  0  0  0  0  0  0  0  0
  1  2  1  0  0  0  0
  2  3  2  0  0  0  0
  3  4  1  0  0  0  0
  4  5  2  0  0  0  0
  5  6  1  0  0  0  0
  6  7  3  0  0  0  0
  5  8  1  0  0  0  0
  8  9  2  0  0  0  0
  2  9  1  0  0  0  0
M  END
>  <Catalog ID>
Z1255400695

>  <PlateID>
1198308-R-SPFL-18

>  <Well>
F06

>  <MW (desalted)>
118.136

>  <ClogP>
0.457

>  <HBD>
0

>  <TPSA>
25.780

>  <RotBonds>
0

$$$$

            

 10 10  0  0  0  0            999 V2000
    0.5678    1.9393    0.0000 N   0  0  0  0  0  0  0  0  0  0  0  0
    0.5678    1.1143    0.0000 C   0  0  0  0  0  0  0  0  0  0  0  0
    1.2352    0.6294    0.0000 C   0  0  0  0  0  0  0  0  0  0  0  0
    0.9803   -0.1553    0.0000 N   0  0  0  0  0  0  0  0  0  0  0  0
    0.1553   -0.1553    0.0000 N   0  0  0  0  0  0  0  0  0  0  0  0
   -0.3297   -0.8227    0.0000 C   0  0  0  0  0  0  0  0  0  0  0  0
   -1.1501   -0.7365    0.0000 C   0  0  0  0  0  0  0  0  0  0  0  0
   -1.6351   -1.4039    0.0000 F   0  0  0  0  0  0  0  0  0  0  0  0
   -1.4857    0.0172    0.0000 F   0  0  0  0  0  0  0  0  0  0  0  0
   -0.0997    0.6294    0.0000 N   0  0  0  0  0  0  0  0  0  0  0  0
  1  2  1  0  0  0  0
  2  3  1  0  0  0  0
  3  4  2  0  0  0  0
  4  5  1  0  0  0  0
  5  6  1  0  0  0  0
  6  7  1  0  0  0  0
  7  8  1  0  0  0  0
  7  9  1  0  0  0  0
  5 10  1  0  0  0  0
  2 10  2  0  0  0  0
M  END
>  <Catalog ID>
Z2937934270

>  <PlateID>
1198308-R-SPFL-18

>  <Well>
F07

>  <MW (desalted)>
148.114

>  <ClogP>
-0.250

>  <HBD>
1

>  <TPSA>
56.730

>  <RotBonds>
2

$$$$

            

  9  9  0  0  0  0            999 V2000
    0.7145    2.0625    0.0000 F   0  0  0  0  0  0  0  0  0  0  0  0
    0.7145    1.2375    0.0000 C   0  0  0  0  0  0  0  0  0  0  0  0
    1.4289    0.8250    0.0000 C   0  0  0  0  0  0  0  0  0  0  0  0
    1.4289   -0.0000    0.0000 N   0  0  0  0  0  0  0  0  0  0  0  0
    0.7145   -0.4125    0.0000 C   0  0  0  0  0  0  0  0  0  0  0  0
    0.7145   -1.2375    0.0000 C   0  0  0  0  0  0  0  0  0  0  0  0
    0.7145   -2.0625    0.0000 C   0  0  0  0  0  0  0  0  0  0  0  0
    0.0000    0.0000    0.0000 N   0  0  0  0  0  0  0  0  0  0  0  0
    0.0000    0.8250    0.0000 C   0  0  0  0  0  0  0  0  0  0  0  0
  1  2  1  0  0  0  0
  2  3  2  0  0  0  0
  3  4  1  0  0  0  0
  4  5  2  0  0  0  0
  5  6  1  0  0  0  0
  6  7  3  0  0  0  0
  5  8  1  0  0  0  0
  8  9  2  0  0  0  0
  2  9  1  0  0  0  0
M  END
>  <Catalog ID>
Z1255448804

>  <PlateID>
1198308-R-SPFL-18

>  <Well>
F08

>  <MW (desalted)>
122.100

>  <ClogP>
0.139

>  <HBD>
0

>  <TPSA>
25.780

>  <RotBonds>
0

$$$$

            

 14 15  0  0  0  0            999 V2000
    0.7145   -0.4125    0.0000 C   0  0  0  0  0  0  0  0  0  0  0  0
    0.7145   -1.2375    0.0000 C   0  0  0  0  0  0  0  0  0  0  0  0
    1.4289   -1.6500    0.0000 C   0  0  0  0  0  0  0  0  0  0  0  0
    1.4289   -2.4750    0.0000 N   0  0  0  0  0  0  0  0  0  0  0  0
    0.7145   -2.8875    0.0000 C   0  0  0  0  0  0  0  0  0  0  0  0
    0.7145   -3.7125    0.0000 Cl  0  0  0  0  0  0  0  0  0  0  0  0
    0.0000   -2.4750    0.0000 N   0  0  0  0  0  0  0  0  0  0  0  0
    0.0000   -1.6500    0.0000 C   0  0  0  0  0  0  0  0  0  0  0  0
   -0.7145   -1.2375    0.0000 C   0  0  0  0  0  0  0  0  0  0  0  0
   -1.4289   -1.6500    0.0000 C   0  0  0  0  0  0  0  0  0  0  0  0
   -2.1434   -1.2375    0.0000 C   0  0  0  0  0  0  0  0  0  0  0  0
   -2.1434   -0.4125    0.0000 C   0  0  0  0  0  0  0  0  0  0  0  0
   -1.4289    0.0000    0.0000 N   0  0  0  0  0  0  0  0  0  0  0  0
   -0.7145   -0.4125    0.0000 C   0  0  0  0  0  0  0  0  0  0  0  0
  1  2  1  0  0  0  0
  2  3  2  0  0  0  0
  3  4  1  0  0  0  0
  4  5  2  0  0  0  0
  5  6  1  0  0  0  0
  5  7  1  0  0  0  0
  7  8  2  0  0  0  0
  2  8  1  0  0  0  0
  8  9  1  0  0  0  0
  9 10  2  0  0  0  0
 10 11  1  0  0  0  0
 11 12  2  0  0  0  0
 12 13  1  0  0  0  0
 13 14  2  0  0  0  0
  9 14  1  0  0  0  0
M  END
>  <Catalog ID>
Z1302516533

>  <PlateID>
1198308-R-SPFL-18

>  <Well>
F09

>  <MW (desalted)>
205.644

>  <ClogP>
1.326

>  <HBD>
0

>  <TPSA>
38.670

>  <RotBonds>
1

$$$$

            

 10 11  0  0  0  0            999 V2000
    0.8838   -2.1500    0.0000 C   0  0  0  0  0  0  0  0  0  0  0  0
    1.1387   -1.3654    0.0000 C   0  0  0  0  0  0  0  0  0  0  0  0
    0.6538   -0.6979    0.0000 C   0  0  0  0  0  0  0  0  0  0  0  0
    1.1387   -0.0305    0.0000 S   0  0  0  0  0  0  0  0  0  0  0  0
    1.9233   -0.2854    0.0000 C   0  0  0  0  0  0  0  0  0  0  0  0
    2.6378    0.1271    0.0000 C   0  0  0  0  0  0  0  0  0  0  0  0
    3.3523   -0.2854    0.0000 C   0  0  0  0  0  0  0  0  0  0  0  0
    3.3523   -1.1104    0.0000 C   0  0  0  0  0  0  0  0  0  0  0  0
    2.6378   -1.5229    0.0000 C   0  0  0  0  0  0  0  0  0  0  0  0
    1.9233   -1.1104    0.0000 C   0  0  0  0  0  0  0  0  0  0  0  0
  1  2  1  0  0  0  0
  2  3  2  0  0  0  0
  3  4  1  0  0  0  0
  4  5  1  0  0  0  0
  5  6  2  0  0  0  0
  6  7  1  0  0  0  0
  7  8  2  0  0  0  0
  8  9  1  0  0  0  0
  9 10  2  0  0  0  0
  2 10  1  0  0  0  0
  5 10  1  0  0  0  0
M  END
>  <Catalog ID>
Z586251152

>  <PlateID>
1198308-R-SPFL-18

>  <Well>
F10

>  <MW (desalted)>
148.225

>  <ClogP>
3.671

>  <HBD>
0

>  <TPSA>
0.000

>  <RotBonds>
0

$$$$

            

 11 12  0  0  0  0            999 V2000
    0.0000   -0.0000    0.0000 O   0  0  0  0  0  0  0  0  0  0  0  0
    0.7145   -0.4125    0.0000 C   0  0  0  0  0  0  0  0  0  0  0  0
    1.4289    0.0000    0.0000 C   0  0  0  0  0  0  0  0  0  0  0  0
    2.1434   -0.4125    0.0000 C   0  0  0  0  0  0  0  0  0  0  0  0
    2.8579    0.0000    0.0000 C   0  0  0  0  0  0  0  0  0  0  0  0
    3.5724   -0.4125    0.0000 C   0  0  0  0  0  0  0  0  0  0  0  0
    3.5724   -1.2375    0.0000 C   0  0  0  0  0  0  0  0  0  0  0  0
    2.8579   -1.6500    0.0000 C   0  0  0  0  0  0  0  0  0  0  0  0
    2.1434   -1.2375    0.0000 C   0  0  0  0  0  0  0  0  0  0  0  0
    1.4289   -1.6500    0.0000 N   0  0  0  0  0  0  0  0  0  0  0  0
    0.7145   -1.2375    0.0000 N   0  0  0  0  0  0  0  0  0  0  0  0
  1  2  2  0  0  0  0
  2  3  1  0  0  0  0
  3  4  2  0  0  0  0
  4  5  1  0  0  0  0
  5  6  1  0  0  0  0
  6  7  1  0  0  0  0
  7  8  1  0  0  0  0
  8  9  1  0  0  0  0
  4  9  1  0  0  0  0
  9 10  2  0  0  0  0
 10 11  1  0  0  0  0
  2 11  1  0  0  0  0
M  END
>  <Catalog ID>
Z204532408

>  <PlateID>
1198308-R-SPFL-18

>  <Well>
F11

>  <MW (desalted)>
150.178

>  <ClogP>
0.343

>  <HBD>
1

>  <TPSA>
41.460

>  <RotBonds>
0

$$$$

            

  9 10  0  0  0  0            999 V2000
    0.6538   -0.6979    0.0000 C   0  0  0  0  0  0  0  0  0  0  0  0
    1.1387   -0.0305    0.0000 N   0  0  0  0  0  0  0  0  0  0  0  0
    1.9233   -0.2854    0.0000 C   0  0  0  0  0  0  0  0  0  0  0  0
    2.6378    0.1271    0.0000 N   0  0  0  0  0  0  0  0  0  0  0  0
    3.3523   -0.2854    0.0000 C   0  0  0  0  0  0  0  0  0  0  0  0
    3.3523   -1.1104    0.0000 C   0  0  0  0  0  0  0  0  0  0  0  0
    2.6378   -1.5229    0.0000 C   0  0  0  0  0  0  0  0  0  0  0  0
    1.9233   -1.1104    0.0000 C   0  0  0  0  0  0  0  0  0  0  0  0
    1.1387   -1.3654    0.0000 S   0  0  0  0  0  0  0  0  0  0  0  0
  1  2  2  0  0  0  0
  2  3  1  0  0  0  0
  3  4  2  0  0  0  0
  4  5  1  0  0  0  0
  5  6  2  0  0  0  0
  6  7  1  0  0  0  0
  7  8  2  0  0  0  0
  3  8  1  0  0  0  0
  8  9  1  0  0  0  0
  1  9  1  0  0  0  0
M  END
>  <Catalog ID>
Z1255361601

>  <PlateID>
1198308-R-SPFL-18

>  <Well>
G02

>  <MW (desalted)>
136.174

>  <ClogP>
1.000

>  <HBD>
0

>  <TPSA>
25.780

>  <RotBonds>
0

$$$$

            

 11 11  0  0  0  0            999 V2000
    0.7145    2.8875    0.0000 N   0  0  0  0  0  0  0  0  0  0  0  0
    0.7145    2.0625    0.0000 S   0  0  0  0  0  0  0  0  0  0  0  0
   -0.1105    2.0625    0.0000 O   0  0  0  0  0  0  0  0  0  0  0  0
    1.5395    2.0625    0.0000 O   0  0  0  0  0  0  0  0  0  0  0  0
    0.7145    1.2375    0.0000 C   0  0  0  0  0  0  0  0  0  0  0  0
    1.4289    0.8250    0.0000 C   0  0  0  0  0  0  0  0  0  0  0  0
    1.4289   -0.0000    0.0000 C   0  0  0  0  0  0  0  0  0  0  0  0
    0.7145   -0.4125    0.0000 C   0  0  0  0  0  0  0  0  0  0  0  0
    0.7145   -1.2375    0.0000 F   0  0  0  0  0  0  0  0  0  0  0  0
    0.0000    0.0000    0.0000 C   0  0  0  0  0  0  0  0  0  0  0  0
    0.0000    0.8250    0.0000 N   0  0  0  0  0  0  0  0  0  0  0  0
  1  2  1  0  0  0  0
  2  3  2  0  0  0  0
  2  4  2  0  0  0  0
  2  5  1  0  0  0  0
  5  6  2  0  0  0  0
  6  7  1  0  0  0  0
  7  8  2  0  0  0  0
  8  9  1  0  0  0  0
  8 10  1  0  0  0  0
 10 11  2  0  0  0  0
  5 11  1  0  0  0  0
M  END
>  <Catalog ID>
Z854066766

>  <PlateID>
1198308-R-SPFL-18

>  <Well>
G03

>  <MW (desalted)>
176.169

>  <ClogP>
0.043

>  <HBD>
1

>  <TPSA>
73.050

>  <RotBonds>
1

$$$$

            

 13 14  0  0  0  0            999 V2000
   -2.2337   -1.4124    0.0000 C   0  0  0  0  0  0  0  0  0  0  0  0
   -1.4087   -1.4124    0.0000 C   0  0  0  0  0  0  0  0  0  0  0  0
   -0.5837   -1.4124    0.0000 C   0  0  0  0  0  0  0  0  0  0  0  0
   -0.1712   -0.6979    0.0000 C   0  0  0  0  0  0  0  0  0  0  0  0
    0.6538   -0.6979    0.0000 N   0  0  0  0  0  0  0  0  0  0  0  0
    1.1387   -0.0305    0.0000 C   0  0  0  0  0  0  0  0  0  0  0  0
    1.9233   -0.2854    0.0000 C   0  0  0  0  0  0  0  0  0  0  0  0
    2.6378    0.1271    0.0000 C   0  0  0  0  0  0  0  0  0  0  0  0
    3.3523   -0.2854    0.0000 C   0  0  0  0  0  0  0  0  0  0  0  0
    3.3523   -1.1104    0.0000 C   0  0  0  0  0  0  0  0  0  0  0  0
    2.6378   -1.5229    0.0000 C   0  0  0  0  0  0  0  0  0  0  0  0
    1.9233   -1.1104    0.0000 C   0  0  0  0  0  0  0  0  0  0  0  0
    1.1387   -1.3654    0.0000 C   0  0  0  0  0  0  0  0  0  0  0  0
  1  2  3  0  0  0  0
  2  3  1  0  0  0  0
  3  4  1  0  0  0  0
  4  5  1  0  0  0  0
  5  6  1  0  0  0  0
  6  7  1  0  0  0  0
  7  8  2  0  0  0  0
  8  9  1  0  0  0  0
  9 10  2  0  0  0  0
 10 11  1  0  0  0  0
 11 12  2  0  0  0  0
  7 12  1  0  0  0  0
 12 13  1  0  0  0  0
  5 13  1  0  0  0  0
M  END
>  <Catalog ID>
Z1143222447

>  <PlateID>
1198308-R-SPFL-18

>  <Well>
G04

>  <MW (desalted)>
171.238

>  <ClogP>
2.061

>  <HBD>
0

>  <TPSA>
3.240

>  <RotBonds>
2

$$$$

            

 16 17  0  0  0  0            999 V2000
   -0.7145   -0.4125    0.0000 F   0  0  0  0  0  0  0  0  0  0  0  0
   -0.7145   -1.2375    0.0000 C   0  0  0  0  0  0  0  0  0  0  0  0
    0.0000   -1.6500    0.0000 C   0  0  0  0  0  0  0  0  0  0  0  0
    0.0000   -2.4750    0.0000 C   0  0  0  0  0  0  0  0  0  0  0  0
   -0.7145   -2.8875    0.0000 C   0  0  0  0  0  0  0  0  0  0  0  0
   -1.4289   -2.4750    0.0000 C   0  0  0  0  0  0  0  0  0  0  0  0
   -2.1434   -2.8875    0.0000 O   0  0  0  0  0  0  0  0  0  0  0  0
   -2.1434   -3.7125    0.0000 C   0  0  0  0  0  0  0  0  0  0  0  0
   -1.4289   -4.1250    0.0000 C   0  0  0  0  0  0  0  0  0  0  0  0
   -1.4289   -4.9500    0.0000 C   0  0  0  0  0  0  0  0  0  0  0  0
   -2.1434   -5.3625    0.0000 C   0  0  0  0  0  0  0  0  0  0  0  0
   -2.8579   -4.9500    0.0000 C   0  0  0  0  0  0  0  0  0  0  0  0
   -3.5724   -5.3625    0.0000 C   0  0  0  0  0  0  0  0  0  0  0  0
   -4.2868   -5.7750    0.0000 N   0  0  0  0  0  0  0  0  0  0  0  0
   -2.8579   -4.1250    0.0000 C   0  0  0  0  0  0  0  0  0  0  0  0
   -1.4289   -1.6500    0.0000 C   0  0  0  0  0  0  0  0  0  0  0  0
  1  2  1  0  0  0  0
  2  3  2  0  0  0  0
  3  4  1  0  0  0  0
  4  5  2  0  0  0  0
  5  6  1  0  0  0  0
  6  7  1  0  0  0  0
  7  8  1  0  0  0  0
  8  9  2  0  0  0  0
  9 10  1  0  0  0  0
 10 11  2  0  0  0  0
 11 12  1  0  0  0  0
 12 13  1  0  0  0  0
 13 14  3  0  0  0  0
 12 15  2  0  0  0  0
  8 15  1  0  0  0  0
  6 16  2  0  0  0  0
  2 16  1  0  0  0  0
M  END
>  <Catalog ID>
Z1799973540

>  <PlateID>
1198308-R-SPFL-18

>  <Well>
G05

>  <MW (desalted)>
213.207

>  <ClogP>
3.816

>  <HBD>
0

>  <TPSA>
33.020

>  <RotBonds>
2

$$$$

            

 11 12  0  0  0  0            999 V2000
    3.2789    2.0625    0.0000 F   0  0  0  0  0  0  0  0  0  0  0  0
    3.2789    1.2375    0.0000 C   0  0  0  0  0  0  0  0  0  0  0  0
    3.9934    0.8250    0.0000 C   0  0  0  0  0  0  0  0  0  0  0  0
    4.7079    1.2375    0.0000 Cl  0  0  0  0  0  0  0  0  0  0  0  0
    3.9934    0.0000    0.0000 C   0  0  0  0  0  0  0  0  0  0  0  0
    3.2789   -0.4125    0.0000 C   0  0  0  0  0  0  0  0  0  0  0  0
    2.5645    0.0000    0.0000 C   0  0  0  0  0  0  0  0  0  0  0  0
    1.7798   -0.2549    0.0000 C   0  0  0  0  0  0  0  0  0  0  0  0
    1.2949    0.4125    0.0000 C   0  0  0  0  0  0  0  0  0  0  0  0
    1.7798    1.0799    0.0000 O   0  0  0  0  0  0  0  0  0  0  0  0
    2.5645    0.8250    0.0000 C   0  0  0  0  0  0  0  0  0  0  0  0
  1  2  1  0  0  0  0
  2  3  1  0  0  0  0
  3  4  1  0  0  0  0
  3  5  2  0  0  0  0
  5  6  1  0  0  0  0
  6  7  2  0  0  0  0
  7  8  1  0  0  0  0
  8  9  2  0  0  0  0
  9 10  1  0  0  0  0
 10 11  1  0  0  0  0
  2 11  2  0  0  0  0
  7 11  1  0  0  0  0
M  END
>  <Catalog ID>
Z1681362741

>  <PlateID>
1198308-R-SPFL-18

>  <Well>
G06

>  <MW (desalted)>
170.568

>  <ClogP>
3.558

>  <HBD>
0

>  <TPSA>
13.140

>  <RotBonds>
0

$$$$

            

 13 14  0  0  0  0            999 V2000
    2.1434   -0.4125    0.0000 C   0  0  0  0  0  0  0  0  0  0  0  0
    2.1434   -1.2375    0.0000 C   0  0  0  0  0  0  0  0  0  0  0  0
    2.8579   -1.6500    0.0000 C   0  0  0  0  0  0  0  0  0  0  0  0
    2.8579   -2.4750    0.0000 C   0  0  0  0  0  0  0  0  0  0  0  0
    2.1434   -2.8875    0.0000 C   0  0  0  0  0  0  0  0  0  0  0  0
    1.4289   -2.4750    0.0000 C   0  0  0  0  0  0  0  0  0  0  0  0
    1.4289   -1.6500    0.0000 N   0  0  0  0  0  0  0  0  0  0  0  0
    2.8579    0.0000    0.0000 C   0  0  0  0  0  0  0  0  0  0  0  0
    2.8579    0.8250    0.0000 C   0  0  0  0  0  0  0  0  0  0  0  0
    3.5724    1.2375    0.0000 C   0  0  0  0  0  0  0  0  0  0  0  0
    4.2868    0.8250    0.0000 C   0  0  0  0  0  0  0  0  0  0  0  0
    4.2868    0.0000    0.0000 C   0  0  0  0  0  0  0  0  0  0  0  0
    3.5724   -0.4125    0.0000 N   0  0  0  0  0  0  0  0  0  0  0  0
  1  2  1  0  0  0  0
  2  3  1  0  0  0  0
  3  4  1  0  0  0  0
  4  5  1  0  0  0  0
  5  6  1  0  0  0  0
  6  7  1  0  0  0  0
  2  7  1  0  0  0  0
  1  8  1  0  0  0  0
  8  9  2  0  0  0  0
  9 10  1  0  0  0  0
 10 11  2  0  0  0  0
 11 12  1  0  0  0  0
 12 13  2  0  0  0  0
  8 13  1  0  0  0  0
M  END
>  <Catalog ID>
Z1198165438

>  <PlateID>
1198308-R-SPFL-18

>  <Well>
G07

>  <MW (desalted)>
176.258

>  <ClogP>
1.525

>  <HBD>
1

>  <TPSA>
24.920

>  <RotBonds>
2

$$$$

            

 11 11  0  0  0  0            999 V2000
    1.2822    2.3518    0.0000 N   0  0  0  0  0  0  0  0  0  0  0  0
    0.5678    1.9393    0.0000 C   0  0  0  0  0  0  0  0  0  0  0  0
    0.5678    1.1143    0.0000 C   0  0  0  0  0  0  0  0  0  0  0  0
    1.2352    0.6294    0.0000 C   0  0  0  0  0  0  0  0  0  0  0  0
    0.9803   -0.1553    0.0000 C   0  0  0  0  0  0  0  0  0  0  0  0
    0.1553   -0.1553    0.0000 N   0  0  0  0  0  0  0  0  0  0  0  0
   -0.0997    0.6294    0.0000 N   0  0  0  0  0  0  0  0  0  0  0  0
   -0.8843    0.8843    0.0000 C   0  0  0  0  0  0  0  0  0  0  0  0
   -1.6689    1.1392    0.0000 F   0  0  0  0  0  0  0  0  0  0  0  0
   -0.6294    1.6689    0.0000 F   0  0  0  0  0  0  0  0  0  0  0  0
   -1.1392    0.0997    0.0000 F   0  0  0  0  0  0  0  0  0  0  0  0
  1  2  1  0  0  0  0
  2  3  1  0  0  0  0
  3  4  2  0  0  0  0
  4  5  1  0  0  0  0
  5  6  2  0  0  0  0
  6  7  1  0  0  0  0
  3  7  1  0  0  0  0
  7  8  1  0  0  0  0
  8  9  1  0  0  0  0
  8 10  1  0  0  0  0
  8 11  1  0  0  0  0
M  END
>  <Catalog ID>
Z4445500220

>  <PlateID>
1198308-R-SPFL-18

>  <Well>
G08

>  <MW (desalted)>
165.116

>  <ClogP>
-0.232

>  <HBD>
1

>  <TPSA>
43.840

>  <RotBonds>
2

$$$$

            

 12 13  0  0  0  0            999 V2000
    4.0668    3.1729    0.0000 O   0  0  0  0  0  0  0  0  0  0  0  0
    4.0668    2.3479    0.0000 C   0  0  0  0  0  0  0  0  0  0  0  0
    4.7812    1.9354    0.0000 O   0  0  0  0  0  0  0  0  0  0  0  0
    3.3523    1.9354    0.0000 C   0  0  0  0  0  0  0  0  0  0  0  0
    3.3523    1.1104    0.0000 C   0  0  0  0  0  0  0  0  0  0  0  0
    2.6378    0.6979    0.0000 C   0  0  0  0  0  0  0  0  0  0  0  0
    1.9233    1.1104    0.0000 C   0  0  0  0  0  0  0  0  0  0  0  0
    1.1387    0.8555    0.0000 O   0  0  0  0  0  0  0  0  0  0  0  0
    0.6538    1.5229    0.0000 N   0  0  0  0  0  0  0  0  0  0  0  0
    1.1387    2.1904    0.0000 C   0  0  0  0  0  0  0  0  0  0  0  0
    1.9233    1.9354    0.0000 C   0  0  0  0  0  0  0  0  0  0  0  0
    2.6378    2.3479    0.0000 C   0  0  0  0  0  0  0  0  0  0  0  0
  1  2  1  0  0  0  0
  2  3  2  0  0  0  0
  2  4  1  0  0  0  0
  4  5  2  0  0  0  0
  5  6  1  0  0  0  0
  6  7  2  0  0  0  0
  7  8  1  0  0  0  0
  8  9  1  0  0  0  0
  9 10  2  0  0  0  0
 10 11  1  0  0  0  0
  7 11  1  0  0  0  0
 11 12  2  0  0  0  0
  4 12  1  0  0  0  0
M  END
>  <Catalog ID>
Z1255459218

>  <PlateID>
1198308-R-SPFL-18

>  <Well>
G09

>  <MW (desalted)>
163.130

>  <ClogP>
1.610

>  <HBD>
1

>  <TPSA>
63.330

>  <RotBonds>
1

$$$$

            

 13 14  0  0  0  0            999 V2000
    0.0000   -1.6500    0.0000 C   0  0  0  0  0  0  0  0  0  0  0  0
    0.7145   -1.2375    0.0000 C   0  0  0  0  0  0  0  0  0  0  0  0
    0.7145   -0.4125    0.0000 C   0  0  0  0  0  0  0  0  0  0  0  0
    1.4289    0.0000    0.0000 C   0  0  0  0  0  0  0  0  0  0  0  0
    1.4289    0.8250    0.0000 C   0  0  0  0  0  0  0  0  0  0  0  0
    2.1434   -0.4125    0.0000 C   0  0  0  0  0  0  0  0  0  0  0  0
    2.8579    0.0000    0.0000 C   0  0  0  0  0  0  0  0  0  0  0  0
    3.5724   -0.4125    0.0000 C   0  0  0  0  0  0  0  0  0  0  0  0
    3.5724   -1.2375    0.0000 C   0  0  0  0  0  0  0  0  0  0  0  0
    4.2868   -1.6500    0.0000 O   0  0  0  0  0  0  0  0  0  0  0  0
    2.8579   -1.6500    0.0000 N   0  0  0  0  0  0  0  0  0  0  0  0
    2.1434   -1.2375    0.0000 C   0  0  0  0  0  0  0  0  0  0  0  0
    1.4289   -1.6500    0.0000 C   0  0  0  0  0  0  0  0  0  0  0  0
  1  2  1  0  0  0  0
  2  3  2  0  0  0  0
  3  4  1  0  0  0  0
  4  5  1  0  0  0  0
  4  6  2  0  0  0  0
  6  7  1  0  0  0  0
  7  8  2  0  0  0  0
  8  9  1  0  0  0  0
  9 10  2  0  0  0  0
  9 11  1  0  0  0  0
 11 12  1  0  0  0  0
  6 12  1  0  0  0  0
 12 13  2  0  0  0  0
  2 13  1  0  0  0  0
M  END
>  <Catalog ID>
Z1209414490

>  <PlateID>
1198308-R-SPFL-18

>  <Well>
G10

>  <MW (desalted)>
173.211

>  <ClogP>
1.810

>  <HBD>
1

>  <TPSA>
29.100

>  <RotBonds>
0

$$$$

            

 13 14  0  0  0  0            999 V2000
    1.4289   -1.6500    0.0000 C   0  0  0  0  0  0  0  0  0  0  0  0
    0.7145   -1.2375    0.0000 N   0  0  0  0  0  0  0  0  0  0  0  0
    0.7145   -0.4125    0.0000 C   0  0  0  0  0  0  0  0  0  0  0  0
    0.0000    0.0000    0.0000 C   0  0  0  0  0  0  0  0  0  0  0  0
    0.0000    0.8250    0.0000 C   0  0  0  0  0  0  0  0  0  0  0  0
    0.7145    1.2375    0.0000 C   0  0  0  0  0  0  0  0  0  0  0  0
    1.4289    0.8250    0.0000 C   0  0  0  0  0  0  0  0  0  0  0  0
    1.4289    0.0000    0.0000 N   0  0  0  0  0  0  0  0  0  0  0  0
    1.4289   -2.4750    0.0000 C   0  0  0  0  0  0  0  0  0  0  0  0
    2.0964   -2.9599    0.0000 C   0  0  0  0  0  0  0  0  0  0  0  0
    1.8414   -3.7445    0.0000 C   0  0  0  0  0  0  0  0  0  0  0  0
    1.0164   -3.7445    0.0000 O   0  0  0  0  0  0  0  0  0  0  0  0
    0.7615   -2.9599    0.0000 C   0  0  0  0  0  0  0  0  0  0  0  0
  1  2  1  0  0  0  0
  2  3  1  0  0  0  0
  3  4  2  0  0  0  0
  4  5  1  0  0  0  0
  5  6  2  0  0  0  0
  6  7  1  0  0  0  0
  7  8  2  0  0  0  0
  3  8  1  0  0  0  0
  1  9  1  0  0  0  0
  9 10  1  0  0  0  0
 10 11  1  0  0  0  0
 11 12  1  0  0  0  0
 12 13  1  0  0  0  0
  9 13  1  0  0  0  0
M  END
>  <Catalog ID>
Z644717214

>  <PlateID>
1198308-R-SPFL-18

>  <Well>
G11

>  <MW (desalted)>
178.231

>  <ClogP>
0.938

>  <HBD>
1

>  <TPSA>
34.150

>  <RotBonds>
3

$$$$

            

 12 13  0  0  0  0            999 V2000
    0.7145    6.7661    0.0000 Cl  0  0  0  0  0  0  0  0  0  0  0  0
    0.7145    5.9411    0.0000 C   0  0  0  0  0  0  0  0  0  0  0  0
    1.4289    5.5286    0.0000 C   0  0  0  0  0  0  0  0  0  0  0  0
    1.4289    4.7036    0.0000 C   0  0  0  0  0  0  0  0  0  0  0  0
    0.7145    4.2911    0.0000 C   0  0  0  0  0  0  0  0  0  0  0  0
    0.0000    4.7036    0.0000 N   0  0  0  0  0  0  0  0  0  0  0  0
    0.0000    5.5286    0.0000 C   0  0  0  0  0  0  0  0  0  0  0  0
    0.7145    3.4661    0.0000 C   0  0  0  0  0  0  0  0  0  0  0  0
    1.3819    2.9812    0.0000 C   0  0  0  0  0  0  0  0  0  0  0  0
    1.1270    2.1965    0.0000 C   0  0  0  0  0  0  0  0  0  0  0  0
    0.3020    2.1965    0.0000 N   0  0  0  0  0  0  0  0  0  0  0  0
    0.0470    2.9812    0.0000 N   0  0  0  0  0  0  0  0  0  0  0  0
  1  2  1  0  0  0  0
  2  3  2  0  0  0  0
  3  4  1  0  0  0  0
  4  5  2  0  0  0  0
  5  6  1  0  0  0  0
  6  7  2  0  0  0  0
  2  7  1  0  0  0  0
  5  8  1  0  0  0  0
  8  9  1  0  0  0  0
  9 10  2  0  0  0  0
 10 11  1  0  0  0  0
 11 12  1  0  0  0  0
  8 12  2  0  0  0  0
M  END
>  <Catalog ID>
Z2204894462

>  <PlateID>
1198308-R-SPFL-18

>  <Well>
H02

>  <MW (desalted)>
179.606

>  <ClogP>
2.016

>  <HBD>
1

>  <TPSA>
41.570

>  <RotBonds>
1

$$$$

            

 12 13  0  0  0  0            999 V2000
    0.7145    6.7661    0.0000 O   0  0  0  0  0  0  0  0  0  0  0  0
    0.7145    5.9411    0.0000 C   0  0  0  0  0  0  0  0  0  0  0  0
    1.4289    5.5286    0.0000 C   0  0  0  0  0  0  0  0  0  0  0  0
    1.4289    4.7036    0.0000 C   0  0  0  0  0  0  0  0  0  0  0  0
    0.7145    4.2911    0.0000 C   0  0  0  0  0  0  0  0  0  0  0  0
    0.0000    4.7036    0.0000 N   0  0  0  0  0  0  0  0  0  0  0  0
    0.0000    5.5286    0.0000 N   0  0  0  0  0  0  0  0  0  0  0  0
    0.7145    3.4661    0.0000 C   0  0  0  0  0  0  0  0  0  0  0  0
    1.3819    2.9812    0.0000 C   0  0  0  0  0  0  0  0  0  0  0  0
    1.1270    2.1965    0.0000 C   0  0  0  0  0  0  0  0  0  0  0  0
    0.3020    2.1965    0.0000 C   0  0  0  0  0  0  0  0  0  0  0  0
    0.0470    2.9812    0.0000 S   0  0  0  0  0  0  0  0  0  0  0  0
  1  2  1  0  0  0  0
  2  3  2  0  0  0  0
  3  4  1  0  0  0  0
  4  5  2  0  0  0  0
  5  6  1  0  0  0  0
  6  7  2  0  0  0  0
  2  7  1  0  0  0  0
  5  8  1  0  0  0  0
  8  9  2  0  0  0  0
  9 10  1  0  0  0  0
 10 11  2  0  0  0  0
 11 12  1  0  0  0  0
  8 12  1  0  0  0  0
M  END
>  <Catalog ID>
Z1201628761

>  <PlateID>
1198308-R-SPFL-18

>  <Well>
H03

>  <MW (desalted)>
178.211

>  <ClogP>
2.208

>  <HBD>
1

>  <TPSA>
46.010

>  <RotBonds>
1

$$$$

            

 15 16  0  0  1  0            999 V2000
    2.7512   -0.0616    0.0000 N   0  0  0  0  0  0  0  0  0  0  0  0
    2.0367   -0.4741    0.0000 C   0  0  0  0  0  0  0  0  0  0  0  0
    1.3222   -0.0616    0.0000 O   0  0  0  0  0  0  0  0  0  0  0  0
    2.0367   -1.2991    0.0000 N   0  0  0  0  0  0  0  0  0  0  0  0
    2.7041   -1.7840    0.0000 C   0  0  0  0  0  0  0  0  0  0  0  0
    2.4492   -2.5687    0.0000 C   0  0  0  0  0  0  0  0  0  0  0  0
    1.6242   -2.5687    0.0000 C   0  0  1  0  0  0  0  0  0  0  0  0
    1.3693   -1.7840    0.0000 C   0  0  0  0  0  0  0  0  0  0  0  0
    1.1393   -3.2361    0.0000 O   0  0  0  0  0  0  0  0  0  0  0  0
    0.3188   -3.1499    0.0000 C   0  0  0  0  0  0  0  0  0  0  0  0
   -0.1661   -3.8173    0.0000 C   0  0  0  0  0  0  0  0  0  0  0  0
   -0.9866   -3.7311    0.0000 C   0  0  0  0  0  0  0  0  0  0  0  0
   -1.3222   -2.9774    0.0000 C   0  0  0  0  0  0  0  0  0  0  0  0
   -0.8372   -2.3099    0.0000 C   0  0  0  0  0  0  0  0  0  0  0  0
   -0.0168   -2.3962    0.0000 C   0  0  0  0  0  0  0  0  0  0  0  0
  1  2  1  0  0  0  0
  2  3  2  0  0  0  0
  2  4  1  0  0  0  0
  4  5  1  0  0  0  0
  5  6  1  0  0  0  0
  7  6  1  0  0  0  0
  7  8  1  0  0  0  0
  4  8  1  0  0  0  0
  7  9  1  6  0  0  0
  9 10  1  0  0  0  0
 10 11  2  0  0  0  0
 11 12  1  0  0  0  0
 12 13  2  0  0  0  0
 13 14  1  0  0  0  0
 14 15  2  0  0  0  0
 10 15  1  0  0  0  0
M  END
>  <Catalog ID>
Z2446014832

>  <PlateID>
1198308-R-SPFL-18

>  <Well>
H04

>  <MW (desalted)>
206.241

>  <ClogP>
0.329

>  <HBD>
1

>  <TPSA>
55.560

>  <RotBonds>
2

$$$$

            

 12 13  0  0  0  0            999 V2000
    2.8775    4.9662    0.0000 C   0  0  0  0  0  0  0  0  0  0  0  0
    2.2456    4.4359    0.0000 C   0  0  0  0  0  0  0  0  0  0  0  0
    2.3888    3.6234    0.0000 C   0  0  0  0  0  0  0  0  0  0  0  0
    1.7568    3.0931    0.0000 C   0  0  0  0  0  0  0  0  0  0  0  0
    0.9816    3.3753    0.0000 C   0  0  0  0  0  0  0  0  0  0  0  0
    0.8383    4.1877    0.0000 N   0  0  0  0  0  0  0  0  0  0  0  0
    1.4703    4.7180    0.0000 C   0  0  0  0  0  0  0  0  0  0  0  0
    0.3496    2.8450    0.0000 C   0  0  0  0  0  0  0  0  0  0  0  0
   -0.2824    3.3753    0.0000 C   0  0  0  0  0  0  0  0  0  0  0  0
   -1.0576    3.0931    0.0000 N   0  0  0  0  0  0  0  0  0  0  0  0
    0.7621    2.1305    0.0000 C   0  0  0  0  0  0  0  0  0  0  0  0
   -0.0629    2.1305    0.0000 C   0  0  0  0  0  0  0  0  0  0  0  0
  1  2  1  0  0  0  0
  2  3  2  0  0  0  0
  3  4  1  0  0  0  0
  4  5  2  0  0  0  0
  5  6  1  0  0  0  0
  6  7  2  0  0  0  0
  2  7  1  0  0  0  0
  5  8  1  0  0  0  0
  8  9  1  0  0  0  0
  9 10  1  0  0  0  0
  8 11  1  0  0  0  0
 11 12  1  0  0  0  0
  8 12  1  0  0  0  0
M  END
>  <Catalog ID>
Z1255363717

>  <PlateID>
1198308-R-SPFL-18

>  <Well>
H05

>  <MW (desalted)>
162.232

>  <ClogP>
0.869

>  <HBD>
1

>  <TPSA>
38.910

>  <RotBonds>
2

$$$$

            

 13 14  0  0  0  0            999 V2000
   -0.2228   -1.9441    0.0000 O   0  0  0  0  0  0  0  0  0  0  0  0
    0.4917   -1.5316    0.0000 C   0  0  0  0  0  0  0  0  0  0  0  0
    0.4917   -0.7066    0.0000 C   0  0  0  0  0  0  0  0  0  0  0  0
    1.2062   -0.2941    0.0000 C   0  0  0  0  0  0  0  0  0  0  0  0
    1.9206   -0.7066    0.0000 C   0  0  0  0  0  0  0  0  0  0  0  0
    2.5656   -0.1923    0.0000 C   0  0  0  0  0  0  0  0  0  0  0  0
    2.3821    0.6120    0.0000 O   0  0  0  0  0  0  0  0  0  0  0  0
    3.3700   -0.3758    0.0000 C   0  0  0  0  0  0  0  0  0  0  0  0
    3.7279   -1.1191    0.0000 C   0  0  0  0  0  0  0  0  0  0  0  0
    3.3700   -1.8624    0.0000 C   0  0  0  0  0  0  0  0  0  0  0  0
    2.5656   -2.0460    0.0000 C   0  0  0  0  0  0  0  0  0  0  0  0
    1.9206   -1.5316    0.0000 C   0  0  0  0  0  0  0  0  0  0  0  0
    1.2062   -1.9441    0.0000 C   0  0  0  0  0  0  0  0  0  0  0  0
  1  2  1  0  0  0  0
  2  3  2  0  0  0  0
  3  4  1  0  0  0  0
  4  5  2  0  0  0  0
  5  6  1  0  0  0  0
  6  7  2  0  0  0  0
  6  8  1  0  0  0  0
  8  9  1  0  0  0  0
  9 10  1  0  0  0  0
 10 11  1  0  0  0  0
 11 12  1  0  0  0  0
  5 12  1  0  0  0  0
 12 13  2  0  0  0  0
  2 13  1  0  0  0  0
M  END
>  <Catalog ID>
Z1201625023

>  <PlateID>
1198308-R-SPFL-18

>  <Well>
H06

>  <MW (desalted)>
176.212

>  <ClogP>
2.558

>  <HBD>
1

>  <TPSA>
37.300

>  <RotBonds>
0

$$$$

            

 13 14  0  0  0  0            999 V2000
    2.1978   -1.0026    0.0000 N   0  0  0  0  0  0  0  0  0  0  0  0
    1.6458   -1.6157    0.0000 C   0  0  0  0  0  0  0  0  0  0  0  0
    1.0938   -1.0026    0.0000 C   0  0  0  0  0  0  0  0  0  0  0  0
    1.3487   -0.2179    0.0000 C   0  0  0  0  0  0  0  0  0  0  0  0
    0.7967    0.3952    0.0000 C   0  0  0  0  0  0  0  0  0  0  0  0
    1.0516    1.1798    0.0000 C   0  0  0  0  0  0  0  0  0  0  0  0
    1.8586    1.3513    0.0000 C   0  0  0  0  0  0  0  0  0  0  0  0
    2.4106    0.7382    0.0000 C   0  0  0  0  0  0  0  0  0  0  0  0
    2.1557   -0.0464    0.0000 C   0  0  0  0  0  0  0  0  0  0  0  0
    2.3132   -2.1006    0.0000 C   0  0  0  0  0  0  0  0  0  0  0  0
    2.0583   -2.8852    0.0000 C   0  0  0  0  0  0  0  0  0  0  0  0
    1.2333   -2.8852    0.0000 O   0  0  0  0  0  0  0  0  0  0  0  0
    0.9784   -2.1006    0.0000 C   0  0  0  0  0  0  0  0  0  0  0  0
  1  2  1  0  0  0  0
  2  3  1  0  0  0  0
  3  4  1  0  0  0  0
  4  5  2  0  0  0  0
  5  6  1  0  0  0  0
  6  7  2  0  0  0  0
  7  8  1  0  0  0  0
  8  9  2  0  0  0  0
  4  9  1  0  0  0  0
  2 10  1  0  0  0  0
 10 11  1  0  0  0  0
 11 12  1  0  0  0  0
 12 13  1  0  0  0  0
  2 13  1  0  0  0  0
M  END
>  <Catalog ID>
Z1258560212

>  <PlateID>
1198308-R-SPFL-18

>  <Well>
H07

>  <MW (desalted)>
177.243

>  <ClogP>
1.383

>  <HBD>
1

>  <TPSA>
35.250

>  <RotBonds>
2

$$$$

            

 11 11  0  0  0  0            999 V2000
    1.4289    2.4750    0.0000 N   0  0  0  0  0  0  0  0  0  0  0  0
    0.7145    2.0625    0.0000 C   0  0  0  0  0  0  0  0  0  0  0  0
    0.7145    1.2375    0.0000 C   0  0  0  0  0  0  0  0  0  0  0  0
    1.4289    0.8250    0.0000 C   0  0  0  0  0  0  0  0  0  0  0  0
    1.4289   -0.0000    0.0000 N   0  0  0  0  0  0  0  0  0  0  0  0
    0.7145   -0.4125    0.0000 C   0  0  0  0  0  0  0  0  0  0  0  0
    0.0000    0.0000    0.0000 C   0  0  0  0  0  0  0  0  0  0  0  0
    0.0000    0.8250    0.0000 C   0  0  0  0  0  0  0  0  0  0  0  0
   -0.7145   -0.4125    0.0000 C   0  0  0  0  0  0  0  0  0  0  0  0
   -0.7145   -1.2375    0.0000 F   0  0  0  0  0  0  0  0  0  0  0  0
   -1.4289    0.0000    0.0000 F   0  0  0  0  0  0  0  0  0  0  0  0
  1  2  1  0  0  0  0
  2  3  1  0  0  0  0
  3  4  2  0  0  0  0
  4  5  1  0  0  0  0
  5  6  2  0  0  0  0
  6  7  1  0  0  0  0
  7  8  2  0  0  0  0
  3  8  1  0  0  0  0
  7  9  1  0  0  0  0
  9 10  1  0  0  0  0
  9 11  1  0  0  0  0
M  END
>  <Catalog ID>
Z1255464592

>  <PlateID>
1198308-R-SPFL-18

>  <Well>
H08

>  <MW (desalted)>
158.149

>  <ClogP>
-0.208

>  <HBD>
1

>  <TPSA>
38.910

>  <RotBonds>
2

$$$$

            

 12 13  0  0  0  0            999 V2000
    4.0668    2.3479    0.0000 O   0  0  0  0  0  0  0  0  0  0  0  0
    3.3523    1.9354    0.0000 C   0  0  0  0  0  0  0  0  0  0  0  0
    3.3523    1.1104    0.0000 C   0  0  0  0  0  0  0  0  0  0  0  0
    2.6378    0.6979    0.0000 C   0  0  0  0  0  0  0  0  0  0  0  0
    1.9233    1.1104    0.0000 C   0  0  0  0  0  0  0  0  0  0  0  0
    1.1387    0.8555    0.0000 O   0  0  0  0  0  0  0  0  0  0  0  0
    0.6538    1.5229    0.0000 C   0  0  0  0  0  0  0  0  0  0  0  0
    0.0407    0.9709    0.0000 F   0  0  0  0  0  0  0  0  0  0  0  0
    0.0407    2.0750    0.0000 F   0  0  0  0  0  0  0  0  0  0  0  0
    1.1387    2.1904    0.0000 O   0  0  0  0  0  0  0  0  0  0  0  0
    1.9233    1.9354    0.0000 C   0  0  0  0  0  0  0  0  0  0  0  0
    2.6378    2.3479    0.0000 C   0  0  0  0  0  0  0  0  0  0  0  0
  1  2  1  0  0  0  0
  2  3  2  0  0  0  0
  3  4  1  0  0  0  0
  4  5  2  0  0  0  0
  5  6  1  0  0  0  0
  6  7  1  0  0  0  0
  7  8  1  0  0  0  0
  7  9  1  0  0  0  0
  7 10  1  0  0  0  0
 10 11  1  0  0  0  0
  5 11  1  0  0  0  0
 11 12  2  0  0  0  0
  2 12  1  0  0  0  0
M  END
>  <Catalog ID>
Z1504679133

>  <PlateID>
1198308-R-SPFL-18

>  <Well>
H09

>  <MW (desalted)>
174.102

>  <ClogP>
3.150

>  <HBD>
1

>  <TPSA>
38.690

>  <RotBonds>
0

$$$$

            

 11 12  0  0  0  0            999 V2000
    2.9195    1.8414    0.0000 C   0  0  0  0  0  0  0  0  0  0  0  0
    2.5070    1.1270    0.0000 N   0  0  0  0  0  0  0  0  0  0  0  0
    2.9195    0.4125    0.0000 C   0  0  0  0  0  0  0  0  0  0  0  0
    2.5070   -0.3020    0.0000 C   0  0  0  0  0  0  0  0  0  0  0  0
    1.6820   -0.3020    0.0000 C   0  0  0  0  0  0  0  0  0  0  0  0
    1.2695    0.4125    0.0000 C   0  0  0  0  0  0  0  0  0  0  0  0
    0.7846   -0.2549    0.0000 C   0  0  0  0  0  0  0  0  0  0  0  0
    0.0000   -0.0000    0.0000 C   0  0  0  0  0  0  0  0  0  0  0  0
   -0.0000    0.8250    0.0000 N   0  0  0  0  0  0  0  0  0  0  0  0
    0.7846    1.0799    0.0000 C   0  0  0  0  0  0  0  0  0  0  0  0
    1.6820    1.1270    0.0000 C   0  0  0  0  0  0  0  0  0  0  0  0
  1  2  1  0  0  0  0
  2  3  1  0  0  0  0
  3  4  1  0  0  0  0
  4  5  1  0  0  0  0
  5  6  1  0  0  0  0
  6  7  1  0  0  0  0
  7  8  1  0  0  0  0
  8  9  1  0  0  0  0
  9 10  1  0  0  0  0
  6 10  1  0  0  0  0
  6 11  1  0  0  0  0
  2 11  1  0  0  0  0
M  END
>  <Catalog ID>
Z1198319313

>  <PlateID>
1198308-R-SPFL-18

>  <Well>
H10

>  <MW (desalted)>
154.253

>  <ClogP>
0.592

>  <HBD>
1

>  <TPSA>
15.270

>  <RotBonds>
0

$$$$

            

 10 11  0  0  0  0            999 V2000
    0.6905   -0.2513    0.0000 C   0  0  0  0  0  0  0  0  0  0  0  0
   -0.1220   -0.1081    0.0000 C   0  0  0  0  0  0  0  0  0  0  0  0
   -0.9345   -0.2513    0.0000 C   0  0  0  0  0  0  0  0  0  0  0  0
   -1.4648    0.3807    0.0000 N   0  0  0  0  0  0  0  0  0  0  0  0
   -1.1826    1.1559    0.0000 C   0  0  0  0  0  0  0  0  0  0  0  0
   -0.3701    1.2992    0.0000 C   0  0  0  0  0  0  0  0  0  0  0  0
    0.1602    0.6672    0.0000 O   0  0  0  0  0  0  0  0  0  0  0  0
   -0.1220   -0.9331    0.0000 C   0  0  0  0  0  0  0  0  0  0  0  0
    0.2905   -1.6475    0.0000 C   0  0  0  0  0  0  0  0  0  0  0  0
   -0.5345   -1.6475    0.0000 C   0  0  0  0  0  0  0  0  0  0  0  0
  1  2  1  0  0  0  0
  2  3  1  0  0  0  0
  3  4  1  0  0  0  0
  4  5  1  0  0  0  0
  5  6  1  0  0  0  0
  6  7  1  0  0  0  0
  2  7  1  0  0  0  0
  2  8  1  0  0  0  0
  8  9  1  0  0  0  0
  9 10  1  0  0  0  0
  8 10  1  0  0  0  0
M  END
>  <Catalog ID>
Z1258762926

>  <PlateID>
1198308-R-SPFL-18

>  <Well>
H11

>  <MW (desalted)>
141.211

>  <ClogP>
0.984

>  <HBD>
1

>  <TPSA>
21.260

>  <RotBonds>
1

$$$$

            

 11 11  0  0  0  0            999 V2000
    1.4289    2.4750    0.0000 O   0  0  0  0  0  0  0  0  0  0  0  0
    0.7145    2.0625    0.0000 C   0  0  0  0  0  0  0  0  0  0  0  0
    0.7145    1.2375    0.0000 C   0  0  0  0  0  0  0  0  0  0  0  0
    1.4289    0.8250    0.0000 C   0  0  0  0  0  0  0  0  0  0  0  0
    1.4289   -0.0000    0.0000 C   0  0  0  0  0  0  0  0  0  0  0  0
    0.7145   -0.4125    0.0000 C   0  0  0  0  0  0  0  0  0  0  0  0
    0.0000    0.0000    0.0000 C   0  0  0  0  0  0  0  0  0  0  0  0
    0.0000    0.8250    0.0000 C   0  0  0  0  0  0  0  0  0  0  0  0
   -0.7145   -0.4125    0.0000 C   0  0  0  0  0  0  0  0  0  0  0  0
   -0.7145   -1.2375    0.0000 F   0  0  0  0  0  0  0  0  0  0  0  0
   -1.4289    0.0000    0.0000 F   0  0  0  0  0  0  0  0  0  0  0  0
  1  2  1  0  0  0  0
  2  3  1  0  0  0  0
  3  4  2  0  0  0  0
  4  5  1  0  0  0  0
  5  6  2  0  0  0  0
  6  7  1  0  0  0  0
  7  8  2  0  0  0  0
  3  8  1  0  0  0  0
  7  9  1  0  0  0  0
  9 10  1  0  0  0  0
  9 11  1  0  0  0  0
M  END
>  <Catalog ID>
Z1238572806

>  <PlateID>
1198308-R-SPFL-19

>  <Well>
A02

>  <MW (desalted)>
158.145

>  <ClogP>
1.299

>  <HBD>
1

>  <TPSA>
20.230

>  <RotBonds>
2

$$$$

            

 14 15  0  0  0  0            999 V2000
    2.7512   -0.0616    0.0000 C   0  0  0  0  0  0  0  0  0  0  0  0
    2.0367   -0.4741    0.0000 C   0  0  0  0  0  0  0  0  0  0  0  0
    2.0367   -1.2991    0.0000 C   0  0  0  0  0  0  0  0  0  0  0  0
    2.7041   -1.7840    0.0000 N   0  0  0  0  0  0  0  0  0  0  0  0
    2.4492   -2.5687    0.0000 O   0  0  0  0  0  0  0  0  0  0  0  0
    1.6242   -2.5687    0.0000 C   0  0  0  0  0  0  0  0  0  0  0  0
    1.1393   -3.2361    0.0000 C   0  0  0  0  0  0  0  0  0  0  0  0
    0.3188   -3.1499    0.0000 N   0  0  0  0  0  0  0  0  0  0  0  0
   -0.1661   -3.8173    0.0000 C   0  0  0  0  0  0  0  0  0  0  0  0
   -0.9866   -3.7311    0.0000 C   0  0  0  0  0  0  0  0  0  0  0  0
   -1.3222   -2.9774    0.0000 S   0  0  0  0  0  0  0  0  0  0  0  0
   -0.8372   -2.3099    0.0000 C   0  0  0  0  0  0  0  0  0  0  0  0
   -0.0168   -2.3962    0.0000 C   0  0  0  0  0  0  0  0  0  0  0  0
    1.3693   -1.7840    0.0000 N   0  0  0  0  0  0  0  0  0  0  0  0
  1  2  1  0  0  0  0
  2  3  1  0  0  0  0
  3  4  2  0  0  0  0
  4  5  1  0  0  0  0
  5  6  1  0  0  0  0
  6  7  1  0  0  0  0
  7  8  1  0  0  0  0
  8  9  1  0  0  0  0
  9 10  1  0  0  0  0
 10 11  1  0  0  0  0
 11 12  1  0  0  0  0
 12 13  1  0  0  0  0
  8 13  1  0  0  0  0
  6 14  2  0  0  0  0
  3 14  1  0  0  0  0
M  END
>  <Catalog ID>
Z433866122

>  <PlateID>
1198308-R-SPFL-19

>  <Well>
A03

>  <MW (desalted)>
213.300

>  <ClogP>
0.774

>  <HBD>
0

>  <TPSA>
42.160

>  <RotBonds>
3

$$$$

            

 13 14  0  0  0  0            999 V2000
    1.4289   -1.6500    0.0000 C   0  0  0  0  0  0  0  0  0  0  0  0
    0.7145   -1.2375    0.0000 N   0  0  0  0  0  0  0  0  0  0  0  0
    0.7145   -0.4125    0.0000 C   0  0  0  0  0  0  0  0  0  0  0  0
    0.0000    0.0000    0.0000 C   0  0  0  0  0  0  0  0  0  0  0  0
    0.0000    0.8250    0.0000 N   0  0  0  0  0  0  0  0  0  0  0  0
    0.7145    1.2375    0.0000 C   0  0  0  0  0  0  0  0  0  0  0  0
    1.4289    0.8250    0.0000 C   0  0  0  0  0  0  0  0  0  0  0  0
    1.4289    0.0000    0.0000 N   0  0  0  0  0  0  0  0  0  0  0  0
    1.4289   -2.4750    0.0000 C   0  0  0  0  0  0  0  0  0  0  0  0
    2.0964   -2.9599    0.0000 C   0  0  0  0  0  0  0  0  0  0  0  0
    1.8414   -3.7445    0.0000 C   0  0  0  0  0  0  0  0  0  0  0  0
    1.0164   -3.7445    0.0000 C   0  0  0  0  0  0  0  0  0  0  0  0
    0.7615   -2.9599    0.0000 S   0  0  0  0  0  0  0  0  0  0  0  0
  1  2  1  0  0  0  0
  2  3  1  0  0  0  0
  3  4  2  0  0  0  0
  4  5  1  0  0  0  0
  5  6  2  0  0  0  0
  6  7  1  0  0  0  0
  7  8  2  0  0  0  0
  3  8  1  0  0  0  0
  1  9  1  0  0  0  0
  9 10  2  0  0  0  0
 10 11  1  0  0  0  0
 11 12  2  0  0  0  0
 12 13  1  0  0  0  0
  9 13  1  0  0  0  0
M  END
>  <Catalog ID>
Z31112041

>  <PlateID>
1198308-R-SPFL-19

>  <Well>
A04

>  <MW (desalted)>
191.253

>  <ClogP>
1.593

>  <HBD>
1

>  <TPSA>
37.810

>  <RotBonds>
3

$$$$

            

 13 14  0  0  0  0            999 V2000
    1.5806   -0.8304    0.0000 C   0  0  0  0  0  0  0  0  0  0  0  0
    1.5806   -1.6554    0.0000 C   0  0  0  0  0  0  0  0  0  0  0  0
    2.2481   -2.1403    0.0000 C   0  0  0  0  0  0  0  0  0  0  0  0
    1.9931   -2.9249    0.0000 C   0  0  0  0  0  0  0  0  0  0  0  0
    1.1681   -2.9249    0.0000 O   0  0  0  0  0  0  0  0  0  0  0  0
    0.9132   -2.1403    0.0000 C   0  0  0  0  0  0  0  0  0  0  0  0
    2.2951   -0.4179    0.0000 N   0  0  0  0  0  0  0  0  0  0  0  0
    2.2335    0.4048    0.0000 C   0  0  0  0  0  0  0  0  0  0  0  0
    2.8382    0.9659    0.0000 C   0  0  0  0  0  0  0  0  0  0  0  0
    3.6540    0.8430    0.0000 C   0  0  0  0  0  0  0  0  0  0  0  0
    4.0665    0.1285    0.0000 S   0  0  0  0  0  0  0  0  0  0  0  0
    3.7651   -0.6395    0.0000 C   0  0  0  0  0  0  0  0  0  0  0  0
    2.9768   -0.8826    0.0000 C   0  0  0  0  0  0  0  0  0  0  0  0
  1  2  1  0  0  0  0
  2  3  1  0  0  0  0
  3  4  1  0  0  0  0
  4  5  1  0  0  0  0
  5  6  1  0  0  0  0
  2  6  1  0  0  0  0
  1  7  1  0  0  0  0
  7  8  1  0  0  0  0
  8  9  1  0  0  0  0
  9 10  1  0  0  0  0
 10 11  1  0  0  0  0
 11 12  1  0  0  0  0
 12 13  1  0  0  0  0
  7 13  1  0  0  0  0
M  END
>  <Catalog ID>
Z1525707341

>  <PlateID>
1198308-R-SPFL-19

>  <Well>
A05

>  <MW (desalted)>
201.329

>  <ClogP>
0.703

>  <HBD>
0

>  <TPSA>
12.470

>  <RotBonds>
2

$$$$

            

 16 17  0  0  0  0            999 V2000
    0.0000   -4.1250    0.0000 C   0  0  0  0  0  0  0  0  0  0  0  0
    0.7145   -3.7125    0.0000 C   0  0  0  0  0  0  0  0  0  0  0  0
    1.4289   -4.1250    0.0000 C   0  0  0  0  0  0  0  0  0  0  0  0
    0.7145   -2.8875    0.0000 C   0  0  0  0  0  0  0  0  0  0  0  0
    1.4289   -2.4750    0.0000 C   0  0  0  0  0  0  0  0  0  0  0  0
    2.1434   -2.8875    0.0000 O   0  0  0  0  0  0  0  0  0  0  0  0
    1.4289   -1.6500    0.0000 N   0  0  0  0  0  0  0  0  0  0  0  0
    0.7145   -1.2375    0.0000 C   0  0  0  0  0  0  0  0  0  0  0  0
    0.7145   -0.4125    0.0000 C   0  0  0  0  0  0  0  0  0  0  0  0
    1.4289    0.0000    0.0000 C   0  0  0  0  0  0  0  0  0  0  0  0
    2.1434   -0.4125    0.0000 C   0  0  0  0  0  0  0  0  0  0  0  0
    2.8579    0.0000    0.0000 N   0  0  0  0  0  0  0  0  0  0  0  0
    3.5724   -0.4125    0.0000 C   0  0  0  0  0  0  0  0  0  0  0  0
    3.5724   -1.2375    0.0000 C   0  0  0  0  0  0  0  0  0  0  0  0
    2.8579   -1.6500    0.0000 C   0  0  0  0  0  0  0  0  0  0  0  0
    2.1434   -1.2375    0.0000 C   0  0  0  0  0  0  0  0  0  0  0  0
  1  2  1  0  0  0  0
  2  3  1  0  0  0  0
  2  4  1  0  0  0  0
  4  5  1  0  0  0  0
  5  6  2  0  0  0  0
  5  7  1  0  0  0  0
  7  8  1  0  0  0  0
  8  9  1  0  0  0  0
  9 10  1  0  0  0  0
 10 11  1  0  0  0  0
 11 12  2  0  0  0  0
 12 13  1  0  0  0  0
 13 14  2  0  0  0  0
 14 15  1  0  0  0  0
 15 16  2  0  0  0  0
  7 16  1  0  0  0  0
 11 16  1  0  0  0  0
M  END
>  <Catalog ID>
Z254451338

>  <PlateID>
1198308-R-SPFL-19

>  <Well>
A06

>  <MW (desalted)>
218.295

>  <ClogP>
1.731

>  <HBD>
0

>  <TPSA>
33.200

>  <RotBonds>
2

$$$$

            

 15 16  0  0  0  0            999 V2000
    2.1434   -0.4125    0.0000 C   0  0  0  0  0  0  0  0  0  0  0  0
    2.1434   -1.2375    0.0000 C   0  0  0  0  0  0  0  0  0  0  0  0
    2.8579   -1.6500    0.0000 C   0  0  0  0  0  0  0  0  0  0  0  0
    2.8579   -2.4750    0.0000 C   0  0  0  0  0  0  0  0  0  0  0  0
    2.1434   -2.8875    0.0000 C   0  0  0  0  0  0  0  0  0  0  0  0
    1.4289   -2.4750    0.0000 N   0  0  0  0  0  0  0  0  0  0  0  0
    0.7145   -2.8875    0.0000 C   0  0  0  0  0  0  0  0  0  0  0  0
    0.0000   -2.4750    0.0000 C   0  0  0  0  0  0  0  0  0  0  0  0
   -0.7145   -2.8875    0.0000 C   0  0  0  0  0  0  0  0  0  0  0  0
   -1.4289   -2.4750    0.0000 C   0  0  0  0  0  0  0  0  0  0  0  0
   -1.4289   -1.6500    0.0000 C   0  0  0  0  0  0  0  0  0  0  0  0
   -0.7145   -1.2375    0.0000 N   0  0  0  0  0  0  0  0  0  0  0  0
    0.0000   -1.6500    0.0000 C   0  0  0  0  0  0  0  0  0  0  0  0
    1.4289   -1.6500    0.0000 C   0  0  0  0  0  0  0  0  0  0  0  0
    0.7145   -1.2375    0.0000 O   0  0  0  0  0  0  0  0  0  0  0  0
  1  2  1  0  0  0  0
  2  3  2  0  0  0  0
  3  4  1  0  0  0  0
  4  5  2  0  0  0  0
  5  6  1  0  0  0  0
  6  7  1  0  0  0  0
  7  8  1  0  0  0  0
  8  9  2  0  0  0  0
  9 10  1  0  0  0  0
 10 11  2  0  0  0  0
 11 12  1  0  0  0  0
 12 13  2  0  0  0  0
  8 13  1  0  0  0  0
  6 14  1  0  0  0  0
  2 14  1  0  0  0  0
 14 15  2  0  0  0  0
M  END
>  <Catalog ID>
Z1721710478

>  <PlateID>
1198308-R-SPFL-19

>  <Well>
A07

>  <MW (desalted)>
200.236

>  <ClogP>
0.684

>  <HBD>
0

>  <TPSA>
33.200

>  <RotBonds>
2

$$$$

            

 12 13  0  0  0  0            999 V2000
   -0.0398    0.1001    0.0000 N   0  0  0  0  0  0  0  0  0  0  0  0
    0.5436   -0.4833    0.0000 C   0  0  0  0  0  0  0  0  0  0  0  0
    1.1270   -1.0666    0.0000 C   0  0  0  0  0  0  0  0  0  0  0  0
    1.7103   -1.6500    0.0000 C   0  0  0  0  0  0  0  0  0  0  0  0
    1.1270   -2.2334    0.0000 C   0  0  0  0  0  0  0  0  0  0  0  0
    0.5436   -1.6500    0.0000 C   0  0  0  0  0  0  0  0  0  0  0  0
    1.7103   -0.4833    0.0000 C   0  0  0  0  0  0  0  0  0  0  0  0
    1.4968    0.3136    0.0000 C   0  0  0  0  0  0  0  0  0  0  0  0
    2.0802    0.8970    0.0000 C   0  0  0  0  0  0  0  0  0  0  0  0
    2.8771    0.6835    0.0000 C   0  0  0  0  0  0  0  0  0  0  0  0
    3.0906   -0.1134    0.0000 C   0  0  0  0  0  0  0  0  0  0  0  0
    2.5072   -0.6968    0.0000 N   0  0  0  0  0  0  0  0  0  0  0  0
  1  2  3  0  0  0  0
  2  3  1  0  0  0  0
  3  4  1  0  0  0  0
  4  5  1  0  0  0  0
  5  6  1  0  0  0  0
  3  6  1  0  0  0  0
  3  7  1  0  0  0  0
  7  8  2  0  0  0  0
  8  9  1  0  0  0  0
  9 10  2  0  0  0  0
 10 11  1  0  0  0  0
 11 12  2  0  0  0  0
  7 12  1  0  0  0  0
M  END
>  <Catalog ID>
Z1255444832

>  <PlateID>
1198308-R-SPFL-19

>  <Well>
A08

>  <MW (desalted)>
158.200

>  <ClogP>
0.970

>  <HBD>
0

>  <TPSA>
36.680

>  <RotBonds>
1

$$$$

            

 13 13  0  0  0  0            999 V2000
    0.0000    0.0000    0.0000 Cl  0  0  0  0  0  0  0  0  0  0  0  0
    2.4353    2.3509    0.0000 C   0  0  0  0  0  0  0  0  0  0  0  0
    2.4353    1.5259    0.0000 N   0  0  0  0  0  0  0  0  0  0  0  0
    3.1027    1.0409    0.0000 C   0  0  0  0  0  0  0  0  0  0  0  0
    2.8478    0.2563    0.0000 C   0  0  0  0  0  0  0  0  0  0  0  0
    2.0228    0.2563    0.0000 C   0  0  0  0  0  0  0  0  0  0  0  0
    1.7679    1.0409    0.0000 N   0  0  0  0  0  0  0  0  0  0  0  0
    3.3327   -0.4111    0.0000 C   0  0  0  0  0  0  0  0  0  0  0  0
    4.1532   -0.3249    0.0000 C   0  0  0  0  0  0  0  0  0  0  0  0
    4.6381   -0.9923    0.0000 C   0  0  0  0  0  0  0  0  0  0  0  0
    4.3026   -1.7460    0.0000 N   0  0  0  0  0  0  0  0  0  0  0  0
    3.4821   -1.8322    0.0000 C   0  0  0  0  0  0  0  0  0  0  0  0
    2.9972   -1.1648    0.0000 C   0  0  0  0  0  0  0  0  0  0  0  0
  2  3  1  0  0  0  0
  3  4  1  0  0  0  0
  4  5  2  0  0  0  0
  5  6  1  0  0  0  0
  6  7  2  0  0  0  0
  3  7  1  0  0  0  0
  5  8  1  0  0  0  0
  8  9  1  0  0  0  0
  9 10  1  0  0  0  0
 10 11  1  0  0  0  0
 11 12  1  0  0  0  0
 12 13  1  0  0  0  0
  8 13  1  0  0  0  0
M  END
>  <Catalog ID>
Z2417819587

>  <PlateID>
1198308-R-SPFL-19

>  <Well>
A09

>  <MW (desalted)>
165.236

>  <ClogP>
0.228

>  <HBD>
1

>  <TPSA>
29.850

>  <RotBonds>
1

$$$$

            

 15 16  0  0  0  0            999 V2000
    3.5949   -0.7864    0.0000 C   0  0  0  0  0  0  0  0  0  0  0  0
    3.5949   -1.6114    0.0000 C   0  0  0  0  0  0  0  0  0  0  0  0
    4.2623   -2.0963    0.0000 N   0  0  0  0  0  0  0  0  0  0  0  0
    4.0074   -2.8809    0.0000 N   0  0  0  0  0  0  0  0  0  0  0  0
    3.1824   -2.8809    0.0000 C   0  0  0  0  0  0  0  0  0  0  0  0
    2.6975   -3.5483    0.0000 N   0  0  0  0  0  0  0  0  0  0  0  0
    1.8770   -3.4621    0.0000 C   0  0  0  0  0  0  0  0  0  0  0  0
    1.5414   -2.7084    0.0000 O   0  0  0  0  0  0  0  0  0  0  0  0
    1.3921   -4.1295    0.0000 C   0  0  0  0  0  0  0  0  0  0  0  0
    0.5716   -4.0433    0.0000 C   0  0  0  0  0  0  0  0  0  0  0  0
    0.0196   -4.6564    0.0000 C   0  0  0  0  0  0  0  0  0  0  0  0
   -0.7341   -4.3208    0.0000 C   0  0  0  0  0  0  0  0  0  0  0  0
   -0.6479   -3.5004    0.0000 C   0  0  0  0  0  0  0  0  0  0  0  0
    0.1591   -3.3288    0.0000 C   0  0  0  0  0  0  0  0  0  0  0  0
    2.9275   -2.0963    0.0000 S   0  0  0  0  0  0  0  0  0  0  0  0
  1  2  1  0  0  0  0
  2  3  2  0  0  0  0
  3  4  1  0  0  0  0
  4  5  2  0  0  0  0
  5  6  1  0  0  0  0
  6  7  1  0  0  0  0
  7  8  2  0  0  0  0
  7  9  1  0  0  0  0
  9 10  1  0  0  0  0
 10 11  1  0  0  0  0
 11 12  1  0  0  0  0
 12 13  1  0  0  0  0
 13 14  1  0  0  0  0
 10 14  1  0  0  0  0
  5 15  1  0  0  0  0
  2 15  1  0  0  0  0
M  END
>  <Catalog ID>
Z29672929

>  <PlateID>
1198308-R-SPFL-19

>  <Well>
B02

>  <MW (desalted)>
225.311

>  <ClogP>
2.270

>  <HBD>
1

>  <TPSA>
54.880

>  <RotBonds>
3

$$$$

            

 14 15  0  0  0  0            999 V2000
    1.4289    0.0000    0.0000 O   0  0  0  0  0  0  0  0  0  0  0  0
    2.1434   -0.4125    0.0000 C   0  0  0  0  0  0  0  0  0  0  0  0
    2.1434   -1.2375    0.0000 N   0  0  0  0  0  0  0  0  0  0  0  0
    2.8579   -1.6500    0.0000 C   0  0  0  0  0  0  0  0  0  0  0  0
    2.8579   -2.4750    0.0000 C   0  0  0  0  0  0  0  0  0  0  0  0
    2.1434   -2.8875    0.0000 S   0  0  0  0  0  0  0  0  0  0  0  0
    1.4289   -2.4750    0.0000 C   0  0  0  0  0  0  0  0  0  0  0  0
    1.4289   -1.6500    0.0000 C   0  0  0  0  0  0  0  0  0  0  0  0
    2.8579    0.0000    0.0000 C   0  0  0  0  0  0  0  0  0  0  0  0
    2.8579    0.8250    0.0000 C   0  0  0  0  0  0  0  0  0  0  0  0
    3.5724    1.2375    0.0000 C   0  0  0  0  0  0  0  0  0  0  0  0
    4.2868    0.8250    0.0000 C   0  0  0  0  0  0  0  0  0  0  0  0
    4.2868    0.0000    0.0000 C   0  0  0  0  0  0  0  0  0  0  0  0
    3.5724   -0.4125    0.0000 C   0  0  0  0  0  0  0  0  0  0  0  0
  1  2  2  0  0  0  0
  2  3  1  0  0  0  0
  3  4  1  0  0  0  0
  4  5  1  0  0  0  0
  5  6  1  0  0  0  0
  6  7  1  0  0  0  0
  7  8  1  0  0  0  0
  3  8  1  0  0  0  0
  2  9  1  0  0  0  0
  9 10  2  0  0  0  0
 10 11  1  0  0  0  0
 11 12  2  0  0  0  0
 12 13  1  0  0  0  0
 13 14  2  0  0  0  0
  9 14  1  0  0  0  0
M  END
>  <Catalog ID>
Z437580388

>  <PlateID>
1198308-R-SPFL-19

>  <Well>
B03

>  <MW (desalted)>
207.292

>  <ClogP>
1.507

>  <HBD>
0

>  <TPSA>
20.310

>  <RotBonds>
1

$$$$

            

 14 14  0  0  0  0            999 V2000
    0.0000    0.0000    0.0000 Cl  0  0  0  0  0  0  0  0  0  0  0  0
    4.8030    2.5508    0.0000 N   0  0  0  0  0  0  0  0  0  0  0  0
    4.0885    2.1383    0.0000 C   0  0  0  0  0  0  0  0  0  0  0  0
    4.0885    1.3133    0.0000 C   0  0  0  0  0  0  0  0  0  0  0  0
    4.7560    0.8284    0.0000 N   0  0  0  0  0  0  0  0  0  0  0  0
    4.5010    0.0438    0.0000 C   0  0  0  0  0  0  0  0  0  0  0  0
    3.6760    0.0438    0.0000 N   0  0  0  0  0  0  0  0  0  0  0  0
    3.4211    0.8284    0.0000 N   0  0  0  0  0  0  0  0  0  0  0  0
    3.1911   -0.6237    0.0000 C   0  0  0  0  0  0  0  0  0  0  0  0
    3.5267   -1.3774    0.0000 C   0  0  0  0  0  0  0  0  0  0  0  0
    3.0418   -2.0448    0.0000 C   0  0  0  0  0  0  0  0  0  0  0  0
    2.2213   -1.9586    0.0000 C   0  0  0  0  0  0  0  0  0  0  0  0
    1.8857   -1.2049    0.0000 C   0  0  0  0  0  0  0  0  0  0  0  0
    2.3706   -0.5374    0.0000 C   0  0  0  0  0  0  0  0  0  0  0  0
  2  3  1  0  0  0  0
  3  4  1  0  0  0  0
  4  5  1  0  0  0  0
  5  6  2  0  0  0  0
  6  7  1  0  0  0  0
  7  8  1  0  0  0  0
  4  8  2  0  0  0  0
  7  9  1  0  0  0  0
  9 10  2  0  0  0  0
 10 11  1  0  0  0  0
 11 12  2  0  0  0  0
 12 13  1  0  0  0  0
 13 14  2  0  0  0  0
  9 14  1  0  0  0  0
M  END
>  <Catalog ID>
Z2217316104

>  <PlateID>
1198308-R-SPFL-19

>  <Well>
B04

>  <MW (desalted)>
174.203

>  <ClogP>
0.155

>  <HBD>
1

>  <TPSA>
56.730

>  <RotBonds>
2

$$$$

            

 11 11  0  0  0  0            999 V2000
   -0.8612    3.5893    0.0000 C   0  0  0  0  0  0  0  0  0  0  0  0
   -0.1467    3.1768    0.0000 N   0  0  0  0  0  0  0  0  0  0  0  0
    0.5678    3.5893    0.0000 C   0  0  0  0  0  0  0  0  0  0  0  0
   -0.1467    2.3518    0.0000 C   0  0  0  0  0  0  0  0  0  0  0  0
   -0.8612    1.9393    0.0000 O   0  0  0  0  0  0  0  0  0  0  0  0
    0.5678    1.9393    0.0000 C   0  0  0  0  0  0  0  0  0  0  0  0
    0.5678    1.1143    0.0000 C   0  0  0  0  0  0  0  0  0  0  0  0
    1.2352    0.6294    0.0000 C   0  0  0  0  0  0  0  0  0  0  0  0
    0.9803   -0.1553    0.0000 C   0  0  0  0  0  0  0  0  0  0  0  0
    0.1553   -0.1553    0.0000 C   0  0  0  0  0  0  0  0  0  0  0  0
   -0.0997    0.6294    0.0000 S   0  0  0  0  0  0  0  0  0  0  0  0
  1  2  1  0  0  0  0
  2  3  1  0  0  0  0
  2  4  1  0  0  0  0
  4  5  2  0  0  0  0
  4  6  1  0  0  0  0
  6  7  1  0  0  0  0
  7  8  2  0  0  0  0
  8  9  1  0  0  0  0
  9 10  2  0  0  0  0
 10 11  1  0  0  0  0
  7 11  1  0  0  0  0
M  END
>  <Catalog ID>
Z32014360

>  <PlateID>
1198308-R-SPFL-19

>  <Well>
B05

>  <MW (desalted)>
169.244

>  <ClogP>
0.612

>  <HBD>
0

>  <TPSA>
20.310

>  <RotBonds>
2

$$$$

            

 13 14  0  0  0  0            999 V2000
    2.5330    0.1698    0.0000 C   0  0  0  0  0  0  0  0  0  0  0  0
    2.5330   -0.6552    0.0000 C   0  0  0  0  0  0  0  0  0  0  0  0
    3.2004   -1.1401    0.0000 N   0  0  0  0  0  0  0  0  0  0  0  0
    2.9455   -1.9248    0.0000 C   0  0  0  0  0  0  0  0  0  0  0  0
    3.4304   -2.5922    0.0000 C   0  0  0  0  0  0  0  0  0  0  0  0
    2.1205   -1.9248    0.0000 N   0  0  0  0  0  0  0  0  0  0  0  0
    1.6356   -2.5922    0.0000 C   0  0  0  0  0  0  0  0  0  0  0  0
    0.8151   -2.5060    0.0000 C   0  0  0  0  0  0  0  0  0  0  0  0
    0.2630   -3.1191    0.0000 C   0  0  0  0  0  0  0  0  0  0  0  0
   -0.4906   -2.7835    0.0000 C   0  0  0  0  0  0  0  0  0  0  0  0
   -0.4044   -1.9630    0.0000 C   0  0  0  0  0  0  0  0  0  0  0  0
    0.4026   -1.7915    0.0000 N   0  0  0  0  0  0  0  0  0  0  0  0
    1.8655   -1.1401    0.0000 N   0  0  0  0  0  0  0  0  0  0  0  0
  1  2  1  0  0  0  0
  2  3  1  0  0  0  0
  3  4  2  0  0  0  0
  4  5  1  0  0  0  0
  4  6  1  0  0  0  0
  6  7  1  0  0  0  0
  7  8  1  0  0  0  0
  8  9  1  0  0  0  0
  9 10  1  0  0  0  0
 10 11  1  0  0  0  0
 11 12  1  0  0  0  0
  8 12  1  0  0  0  0
  6 13  1  0  0  0  0
  2 13  2  0  0  0  0
M  END
>  <Catalog ID>
Z839513280

>  <PlateID>
1198308-R-SPFL-19

>  <Well>
B06

>  <MW (desalted)>
180.250

>  <ClogP>
-0.014

>  <HBD>
1

>  <TPSA>
42.740

>  <RotBonds>
2

$$$$

            

 15 16  0  0  0  0            999 V2000
    1.4289   -1.6500    0.0000 C   0  0  0  0  0  0  0  0  0  0  0  0
    1.4289   -2.4750    0.0000 C   0  0  0  0  0  0  0  0  0  0  0  0
    2.1434   -2.8875    0.0000 C   0  0  0  0  0  0  0  0  0  0  0  0
    2.1434   -3.7125    0.0000 C   0  0  0  0  0  0  0  0  0  0  0  0
    1.4289   -4.1250    0.0000 C   0  0  0  0  0  0  0  0  0  0  0  0
    0.7145   -3.7125    0.0000 C   0  0  0  0  0  0  0  0  0  0  0  0
    0.0000   -4.1250    0.0000 C   0  0  0  0  0  0  0  0  0  0  0  0
    0.0000   -4.9500    0.0000 N   0  0  0  0  0  0  0  0  0  0  0  0
   -0.7145   -5.3625    0.0000 C   0  0  0  0  0  0  0  0  0  0  0  0
   -0.7145   -6.1875    0.0000 C   0  0  0  0  0  0  0  0  0  0  0  0
   -1.4289   -6.6000    0.0000 N   0  0  0  0  0  0  0  0  0  0  0  0
   -2.1434   -6.1875    0.0000 C   0  0  0  0  0  0  0  0  0  0  0  0
   -2.1434   -5.3625    0.0000 C   0  0  0  0  0  0  0  0  0  0  0  0
   -1.4289   -4.9500    0.0000 N   0  0  0  0  0  0  0  0  0  0  0  0
    0.7145   -2.8875    0.0000 C   0  0  0  0  0  0  0  0  0  0  0  0
  1  2  1  0  0  0  0
  2  3  2  0  0  0  0
  3  4  1  0  0  0  0
  4  5  2  0  0  0  0
  5  6  1  0  0  0  0
  6  7  1  0  0  0  0
  7  8  1  0  0  0  0
  8  9  1  0  0  0  0
  9 10  2  0  0  0  0
 10 11  1  0  0  0  0
 11 12  2  0  0  0  0
 12 13  1  0  0  0  0
 13 14  2  0  0  0  0
  9 14  1  0  0  0  0
  6 15  2  0  0  0  0
  2 15  1  0  0  0  0
M  END
>  <Catalog ID>
Z373287422

>  <PlateID>
1198308-R-SPFL-19

>  <Well>
B07

>  <MW (desalted)>
199.252

>  <ClogP>
2.446

>  <HBD>
1

>  <TPSA>
37.810

>  <RotBonds>
3

$$$$

            

  9  9  0  0  0  0            999 V2000
    0.0000    2.4750    0.0000 C   0  0  0  0  0  0  0  0  0  0  0  0
    0.7145    2.0625    0.0000 C   0  0  0  0  0  0  0  0  0  0  0  0
    0.7145    1.2375    0.0000 C   0  0  0  0  0  0  0  0  0  0  0  0
    1.4289    0.8250    0.0000 N   0  0  0  0  0  0  0  0  0  0  0  0
    1.4289   -0.0000    0.0000 N   0  0  0  0  0  0  0  0  0  0  0  0
    0.7145   -0.4125    0.0000 C   0  0  0  0  0  0  0  0  0  0  0  0
    0.0000    0.0000    0.0000 N   0  0  0  0  0  0  0  0  0  0  0  0
    0.0000    0.8250    0.0000 C   0  0  0  0  0  0  0  0  0  0  0  0
   -0.7145    1.2375    0.0000 O   0  0  0  0  0  0  0  0  0  0  0  0
  1  2  1  0  0  0  0
  2  3  1  0  0  0  0
  3  4  2  0  0  0  0
  4  5  1  0  0  0  0
  5  6  1  0  0  0  0
  6  7  2  0  0  0  0
  7  8  1  0  0  0  0
  3  8  1  0  0  0  0
  8  9  2  0  0  0  0
M  END
>  <Catalog ID>
Z1201628993

>  <PlateID>
1198308-R-SPFL-19

>  <Well>
B08

>  <MW (desalted)>
125.129

>  <ClogP>
-0.248

>  <HBD>
1

>  <TPSA>
53.820

>  <RotBonds>
1

$$$$

            

 13 14  0  0  0  0            999 V2000
   -0.0473   -2.6631    0.0000 C   0  0  0  0  0  0  0  0  0  0  0  0
    0.2076   -1.8785    0.0000 C   0  0  0  0  0  0  0  0  0  0  0  0
   -0.3444   -1.2654    0.0000 C   0  0  0  0  0  0  0  0  0  0  0  0
    1.0146   -1.7070    0.0000 C   0  0  0  0  0  0  0  0  0  0  0  0
    1.5666   -2.3201    0.0000 N   0  0  0  0  0  0  0  0  0  0  0  0
    1.2695   -0.9224    0.0000 C   0  0  0  0  0  0  0  0  0  0  0  0
    0.7846   -0.2549    0.0000 N   0  0  0  0  0  0  0  0  0  0  0  0
    1.2695    0.4125    0.0000 N   0  0  0  0  0  0  0  0  0  0  0  0
    2.0542    0.1576    0.0000 C   0  0  0  0  0  0  0  0  0  0  0  0
    2.8388    0.4125    0.0000 C   0  0  0  0  0  0  0  0  0  0  0  0
    3.3237   -0.2549    0.0000 C   0  0  0  0  0  0  0  0  0  0  0  0
    2.8388   -0.9224    0.0000 C   0  0  0  0  0  0  0  0  0  0  0  0
    2.0542   -0.6674    0.0000 N   0  0  0  0  0  0  0  0  0  0  0  0
  1  2  1  0  0  0  0
  2  3  1  0  0  0  0
  2  4  1  0  0  0  0
  4  5  1  0  0  0  0
  4  6  1  0  0  0  0
  6  7  2  0  0  0  0
  7  8  1  0  0  0  0
  8  9  2  0  0  0  0
  9 10  1  0  0  0  0
 10 11  1  0  0  0  0
 11 12  1  0  0  0  0
 12 13  1  0  0  0  0
  6 13  1  0  0  0  0
  9 13  1  0  0  0  0
M  END
>  <Catalog ID>
Z381410526

>  <PlateID>
1198308-R-SPFL-19

>  <Well>
B09

>  <MW (desalted)>
180.250

>  <ClogP>
-0.608

>  <HBD>
1

>  <TPSA>
56.730

>  <RotBonds>
2

$$$$

            

 14 15  0  0  0  0            999 V2000
    0.7145   -1.2375    0.0000 C   0  0  0  0  0  0  0  0  0  0  0  0
    1.4289   -1.6500    0.0000 C   0  0  0  0  0  0  0  0  0  0  0  0
    1.4289   -2.4750    0.0000 C   0  0  0  0  0  0  0  0  0  0  0  0
    2.1434   -2.8875    0.0000 C   0  0  0  0  0  0  0  0  0  0  0  0
    2.1434   -3.7125    0.0000 C   0  0  0  0  0  0  0  0  0  0  0  0
    1.4289   -4.1250    0.0000 N   0  0  0  0  0  0  0  0  0  0  0  0
    0.7145   -3.7125    0.0000 C   0  0  0  0  0  0  0  0  0  0  0  0
    0.7145   -2.8875    0.0000 C   0  0  0  0  0  0  0  0  0  0  0  0
    0.7145   -0.4125    0.0000 N   0  0  0  0  0  0  0  0  0  0  0  0
    0.0000    0.0000    0.0000 C   0  0  0  0  0  0  0  0  0  0  0  0
    0.0000    0.8250    0.0000 C   0  0  0  0  0  0  0  0  0  0  0  0
    0.7145    1.2375    0.0000 S   0  0  0  0  0  0  0  0  0  0  0  0
    1.4289    0.8250    0.0000 C   0  0  0  0  0  0  0  0  0  0  0  0
    1.4289    0.0000    0.0000 C   0  0  0  0  0  0  0  0  0  0  0  0
  1  2  1  0  0  0  0
  2  3  1  0  0  0  0
  3  4  2  0  0  0  0
  4  5  1  0  0  0  0
  5  6  2  0  0  0  0
  6  7  1  0  0  0  0
  7  8  2  0  0  0  0
  3  8  1  0  0  0  0
  1  9  1  0  0  0  0
  9 10  1  0  0  0  0
 10 11  1  0  0  0  0
 11 12  1  0  0  0  0
 12 13  1  0  0  0  0
 13 14  1  0  0  0  0
  9 14  1  0  0  0  0
M  END
>  <Catalog ID>
Z433873504

>  <PlateID>
1198308-R-SPFL-19

>  <Well>
C02

>  <MW (desalted)>
208.323

>  <ClogP>
1.383

>  <HBD>
0

>  <TPSA>
16.130

>  <RotBonds>
3

$$$$

            

 10 11  0  0  0  0            999 V2000
    3.2789    2.0625    0.0000 Cl  0  0  0  0  0  0  0  0  0  0  0  0
    3.2789    1.2375    0.0000 C   0  0  0  0  0  0  0  0  0  0  0  0
    3.9934    0.8250    0.0000 C   0  0  0  0  0  0  0  0  0  0  0  0
    3.9934    0.0000    0.0000 C   0  0  0  0  0  0  0  0  0  0  0  0
    3.2789   -0.4125    0.0000 C   0  0  0  0  0  0  0  0  0  0  0  0
    2.5645    0.0000    0.0000 C   0  0  0  0  0  0  0  0  0  0  0  0
    1.7798   -0.2549    0.0000 N   0  0  0  0  0  0  0  0  0  0  0  0
    1.2949    0.4125    0.0000 N   0  0  0  0  0  0  0  0  0  0  0  0
    1.7798    1.0799    0.0000 C   0  0  0  0  0  0  0  0  0  0  0  0
    2.5645    0.8250    0.0000 C   0  0  0  0  0  0  0  0  0  0  0  0
  1  2  1  0  0  0  0
  2  3  1  0  0  0  0
  3  4  2  0  0  0  0
  4  5  1  0  0  0  0
  5  6  2  0  0  0  0
  6  7  1  0  0  0  0
  7  8  1  0  0  0  0
  8  9  2  0  0  0  0
  9 10  1  0  0  0  0
  2 10  2  0  0  0  0
  6 10  1  0  0  0  0
M  END
>  <Catalog ID>
Z1116312852

>  <PlateID>
1198308-R-SPFL-19

>  <Well>
C03

>  <MW (desalted)>
152.581

>  <ClogP>
2.506

>  <HBD>
1

>  <TPSA>
28.680

>  <RotBonds>
0

$$$$

            

 10 10  0  0  0  0            999 V2000
    1.2822    2.3518    0.0000 C   0  0  0  0  0  0  0  0  0  0  0  0
    0.5678    1.9393    0.0000 C   0  0  0  0  0  0  0  0  0  0  0  0
   -0.1467    2.3518    0.0000 C   0  0  0  0  0  0  0  0  0  0  0  0
    0.5678    1.1143    0.0000 N   0  0  0  0  0  0  0  0  0  0  0  0
    1.2352    0.6294    0.0000 C   0  0  0  0  0  0  0  0  0  0  0  0
    0.9803   -0.1553    0.0000 C   0  0  0  0  0  0  0  0  0  0  0  0
    0.1553   -0.1553    0.0000 C   0  0  0  0  0  0  0  0  0  0  0  0
   -0.3297   -0.8227    0.0000 C   0  0  0  0  0  0  0  0  0  0  0  0
    0.0059   -1.5764    0.0000 O   0  0  0  0  0  0  0  0  0  0  0  0
   -0.0997    0.6294    0.0000 N   0  0  0  0  0  0  0  0  0  0  0  0
  1  2  1  0  0  0  0
  2  3  1  0  0  0  0
  2  4  1  0  0  0  0
  4  5  1  0  0  0  0
  5  6  2  0  0  0  0
  6  7  1  0  0  0  0
  7  8  1  0  0  0  0
  8  9  1  0  0  0  0
  7 10  2  0  0  0  0
  4 10  1  0  0  0  0
M  END
>  <Catalog ID>
Z1250097992

>  <PlateID>
1198308-R-SPFL-19

>  <Well>
C04

>  <MW (desalted)>
140.183

>  <ClogP>
0.057

>  <HBD>
1

>  <TPSA>
38.050

>  <RotBonds>
2

$$$$

            

 13 12  0  0  0  0            999 V2000
    0.0000    0.0000    0.0000 Br  0  0  0  0  0  0  0  0  0  0  0  0
    2.6002    2.6125    0.0000 C   0  0  0  0  0  0  0  0  0  0  0  0
    2.6002    1.7875    0.0000 C   0  0  0  0  0  0  0  0  0  0  0  0
    3.3147    1.3750    0.0000 C   0  0  0  0  0  0  0  0  0  0  0  0
    3.3147    0.5500    0.0000 C   0  0  0  0  0  0  0  0  0  0  0  0
    2.6002    0.1375    0.0000 C   0  0  0  0  0  0  0  0  0  0  0  0
    2.6002   -0.6875    0.0000 C   0  0  0  0  0  0  0  0  0  0  0  0
    3.3147   -1.1000    0.0000 N   0  0  0  0  0  0  0  0  0  0  0  0
    3.3147   -1.9250    0.0000 C   0  0  0  0  0  0  0  0  0  0  0  0
    4.0291   -2.3375    0.0000 N   0  0  0  0  0  0  0  0  0  0  0  0
    2.6002   -2.3375    0.0000 N   0  0  0  0  0  0  0  0  0  0  0  0
    1.8857    0.5500    0.0000 C   0  0  0  0  0  0  0  0  0  0  0  0
    1.8857    1.3750    0.0000 C   0  0  0  0  0  0  0  0  0  0  0  0
  2  3  1  0  0  0  0
  3  4  2  0  0  0  0
  4  5  1  0  0  0  0
  5  6  2  0  0  0  0
  6  7  1  0  0  0  0
  7  8  1  0  0  0  0
  8  9  1  0  0  0  0
  9 10  2  0  0  0  0
  9 11  1  0  0  0  0
  6 12  1  0  0  0  0
 12 13  2  0  0  0  0
  3 13  1  0  0  0  0
M  END
>  <Catalog ID>
Z911465430

>  <PlateID>
1198308-R-SPFL-19

>  <Well>
C05

>  <MW (desalted)>
163.220

>  <ClogP>
0.763

>  <HBD>
3

>  <TPSA>
61.900

>  <RotBonds>
2

$$$$

            

 15 16  0  0  0  0            999 V2000
    2.1434   -1.2375    0.0000 C   0  0  0  0  0  0  0  0  0  0  0  0
    1.4289   -1.6500    0.0000 N   0  0  0  0  0  0  0  0  0  0  0  0
    0.7145   -1.2375    0.0000 C   0  0  0  0  0  0  0  0  0  0  0  0
    0.7145   -0.4125    0.0000 C   0  0  0  0  0  0  0  0  0  0  0  0
    0.0000    0.0000    0.0000 C   0  0  0  0  0  0  0  0  0  0  0  0
    0.0000    0.8250    0.0000 C   0  0  0  0  0  0  0  0  0  0  0  0
    0.7145    1.2375    0.0000 C   0  0  0  0  0  0  0  0  0  0  0  0
    0.7145    2.0625    0.0000 C   0  0  0  0  0  0  0  0  0  0  0  0
    1.4289    0.8250    0.0000 C   0  0  0  0  0  0  0  0  0  0  0  0
    1.4289    0.0000    0.0000 N   0  0  0  0  0  0  0  0  0  0  0  0
    1.4289   -2.4750    0.0000 C   0  0  0  0  0  0  0  0  0  0  0  0
    2.0964   -2.9599    0.0000 C   0  0  0  0  0  0  0  0  0  0  0  0
    1.8414   -3.7445    0.0000 C   0  0  0  0  0  0  0  0  0  0  0  0
    1.0164   -3.7445    0.0000 S   0  0  0  0  0  0  0  0  0  0  0  0
    0.7615   -2.9599    0.0000 C   0  0  0  0  0  0  0  0  0  0  0  0
  1  2  1  0  0  0  0
  2  3  1  0  0  0  0
  3  4  1  0  0  0  0
  4  5  2  0  0  0  0
  5  6  1  0  0  0  0
  6  7  2  0  0  0  0
  7  8  1  0  0  0  0
  7  9  1  0  0  0  0
  9 10  2  0  0  0  0
  4 10  1  0  0  0  0
  2 11  1  0  0  0  0
 11 12  1  0  0  0  0
 12 13  1  0  0  0  0
 13 14  1  0  0  0  0
 14 15  1  0  0  0  0
 11 15  1  0  0  0  0
M  END
>  <Catalog ID>
Z1535088858

>  <PlateID>
1198308-R-SPFL-19

>  <Well>
C06

>  <MW (desalted)>
222.350

>  <ClogP>
1.717

>  <HBD>
0

>  <TPSA>
16.130

>  <RotBonds>
3

$$$$

            

 14 15  0  0  0  0            999 V2000
    0.0000   -1.6500    0.0000 C   0  0  0  0  0  0  0  0  0  0  0  0
    0.7145   -1.2375    0.0000 N   0  0  0  0  0  0  0  0  0  0  0  0
    1.4289   -1.6500    0.0000 C   0  0  0  0  0  0  0  0  0  0  0  0
    1.4289   -2.4750    0.0000 C   0  0  0  0  0  0  0  0  0  0  0  0
    2.0964   -2.9599    0.0000 C   0  0  0  0  0  0  0  0  0  0  0  0
    1.8414   -3.7445    0.0000 C   0  0  0  0  0  0  0  0  0  0  0  0
    1.0164   -3.7445    0.0000 C   0  0  0  0  0  0  0  0  0  0  0  0
    0.7615   -2.9599    0.0000 O   0  0  0  0  0  0  0  0  0  0  0  0
    0.7145   -0.4125    0.0000 C   0  0  0  0  0  0  0  0  0  0  0  0
    0.0000    0.0000    0.0000 N   0  0  0  0  0  0  0  0  0  0  0  0
    0.0000    0.8250    0.0000 C   0  0  0  0  0  0  0  0  0  0  0  0
    0.7145    1.2375    0.0000 C   0  0  0  0  0  0  0  0  0  0  0  0
    1.4289    0.8250    0.0000 C   0  0  0  0  0  0  0  0  0  0  0  0
    1.4289    0.0000    0.0000 N   0  0  0  0  0  0  0  0  0  0  0  0
  1  2  1  0  0  0  0
  2  3  1  0  0  0  0
  3  4  1  0  0  0  0
  4  5  2  0  0  0  0
  5  6  1  0  0  0  0
  6  7  2  0  0  0  0
  7  8  1  0  0  0  0
  4  8  1  0  0  0  0
  2  9  1  0  0  0  0
  9 10  2  0  0  0  0
 10 11  1  0  0  0  0
 11 12  2  0  0  0  0
 12 13  1  0  0  0  0
 13 14  2  0  0  0  0
  9 14  1  0  0  0  0
M  END
>  <Catalog ID>
Z31183312

>  <PlateID>
1198308-R-SPFL-19

>  <Well>
C07

>  <MW (desalted)>
189.214

>  <ClogP>
1.538

>  <HBD>
0

>  <TPSA>
42.160

>  <RotBonds>
3

$$$$

            

 14 15  0  0  0  0            999 V2000
   -0.9851   -3.2777    0.0000 O   0  0  0  0  0  0  0  0  0  0  0  0
   -0.1781   -3.1062    0.0000 C   0  0  0  0  0  0  0  0  0  0  0  0
    0.3739   -3.7192    0.0000 O   0  0  0  0  0  0  0  0  0  0  0  0
    0.0768   -2.3215    0.0000 C   0  0  0  0  0  0  0  0  0  0  0  0
    0.8838   -2.1500    0.0000 C   0  0  0  0  0  0  0  0  0  0  0  0
    1.1387   -1.3654    0.0000 N   0  0  0  0  0  0  0  0  0  0  0  0
    0.6538   -0.6979    0.0000 C   0  0  0  0  0  0  0  0  0  0  0  0
    1.1387   -0.0305    0.0000 N   0  0  0  0  0  0  0  0  0  0  0  0
    1.9233   -0.2854    0.0000 C   0  0  0  0  0  0  0  0  0  0  0  0
    2.6378    0.1271    0.0000 C   0  0  0  0  0  0  0  0  0  0  0  0
    3.3523   -0.2854    0.0000 C   0  0  0  0  0  0  0  0  0  0  0  0
    3.3523   -1.1104    0.0000 C   0  0  0  0  0  0  0  0  0  0  0  0
    2.6378   -1.5229    0.0000 C   0  0  0  0  0  0  0  0  0  0  0  0
    1.9233   -1.1104    0.0000 C   0  0  0  0  0  0  0  0  0  0  0  0
  1  2  1  0  0  0  0
  2  3  2  0  0  0  0
  2  4  1  0  0  0  0
  4  5  1  0  0  0  0
  5  6  1  0  0  0  0
  6  7  1  0  0  0  0
  7  8  2  0  0  0  0
  8  9  1  0  0  0  0
  9 10  2  0  0  0  0
 10 11  1  0  0  0  0
 11 12  2  0  0  0  0
 12 13  1  0  0  0  0
 13 14  2  0  0  0  0
  6 14  1  0  0  0  0
  9 14  1  0  0  0  0
M  END
>  <Catalog ID>
Z53116455

>  <PlateID>
1198308-R-SPFL-19

>  <Well>
C08

>  <MW (desalted)>
190.199

>  <ClogP>
1.190

>  <HBD>
1

>  <TPSA>
55.120

>  <RotBonds>
3

$$$$

            

 13 14  0  0  0  0            999 V2000
   -0.1712   -0.6979    0.0000 C   0  0  0  0  0  0  0  0  0  0  0  0
    0.6538   -0.6979    0.0000 C   0  0  0  0  0  0  0  0  0  0  0  0
    1.1387   -0.0305    0.0000 C   0  0  0  0  0  0  0  0  0  0  0  0
    1.9233   -0.2854    0.0000 C   0  0  0  0  0  0  0  0  0  0  0  0
    2.6378    0.1271    0.0000 C   0  0  0  0  0  0  0  0  0  0  0  0
    2.6378    0.9521    0.0000 N   0  0  0  0  0  0  0  0  0  0  0  0
    3.3523   -0.2854    0.0000 C   0  0  0  0  0  0  0  0  0  0  0  0
    3.3523   -1.1104    0.0000 C   0  0  0  0  0  0  0  0  0  0  0  0
    4.1648   -0.9672    0.0000 C   0  0  0  0  0  0  0  0  0  0  0  0
    3.6345   -1.8857    0.0000 C   0  0  0  0  0  0  0  0  0  0  0  0
    2.6378   -1.5229    0.0000 C   0  0  0  0  0  0  0  0  0  0  0  0
    1.9233   -1.1104    0.0000 C   0  0  0  0  0  0  0  0  0  0  0  0
    1.1387   -1.3654    0.0000 O   0  0  0  0  0  0  0  0  0  0  0  0
  1  2  1  0  0  0  0
  2  3  2  0  0  0  0
  3  4  1  0  0  0  0
  4  5  1  0  0  0  0
  5  6  1  0  0  0  0
  5  7  1  0  0  0  0
  7  8  1  0  0  0  0
  8  9  1  0  0  0  0
  8 10  1  0  0  0  0
  8 11  1  0  0  0  0
 11 12  1  0  0  0  0
  4 12  2  0  0  0  0
 12 13  1  0  0  0  0
  2 13  1  0  0  0  0
M  END
>  <Catalog ID>
Z317054078

>  <PlateID>
1198308-R-SPFL-19

>  <Well>
C09

>  <MW (desalted)>
179.259

>  <ClogP>
2.780

>  <HBD>
1

>  <TPSA>
39.160

>  <RotBonds>
0

$$$$

            

 11 11  0  0  0  0            999 V2000
    0.7145    2.8875    0.0000 N   0  0  0  0  0  0  0  0  0  0  0  0
    0.7145    2.0625    0.0000 S   0  0  0  0  0  0  0  0  0  0  0  0
   -0.1105    2.0625    0.0000 O   0  0  0  0  0  0  0  0  0  0  0  0
    1.5395    2.0625    0.0000 O   0  0  0  0  0  0  0  0  0  0  0  0
    0.7145    1.2375    0.0000 C   0  0  0  0  0  0  0  0  0  0  0  0
    1.4289    0.8250    0.0000 C   0  0  0  0  0  0  0  0  0  0  0  0
    1.4289   -0.0000    0.0000 C   0  0  0  0  0  0  0  0  0  0  0  0
    0.7145   -0.4125    0.0000 C   0  0  0  0  0  0  0  0  0  0  0  0
    0.0000    0.0000    0.0000 C   0  0  0  0  0  0  0  0  0  0  0  0
   -0.7145   -0.4125    0.0000 Cl  0  0  0  0  0  0  0  0  0  0  0  0
    0.0000    0.8250    0.0000 C   0  0  0  0  0  0  0  0  0  0  0  0
  1  2  1  0  0  0  0
  2  3  2  0  0  0  0
  2  4  2  0  0  0  0
  2  5  1  0  0  0  0
  5  6  2  0  0  0  0
  6  7  1  0  0  0  0
  7  8  2  0  0  0  0
  8  9  1  0  0  0  0
  9 10  1  0  0  0  0
  9 11  2  0  0  0  0
  5 11  1  0  0  0  0
M  END
>  <Catalog ID>
Z45415583

>  <PlateID>
1198308-R-SPFL-19

>  <Well>
D02

>  <MW (desalted)>
191.635

>  <ClogP>
1.264

>  <HBD>
1

>  <TPSA>
60.160

>  <RotBonds>
1

$$$$

            

 13 14  0  0  0  0            999 V2000
    0.8838   -2.1500    0.0000 C   0  0  0  0  0  0  0  0  0  0  0  0
    1.1387   -1.3654    0.0000 C   0  0  0  0  0  0  0  0  0  0  0  0
    0.6538   -0.6979    0.0000 N   0  0  0  0  0  0  0  0  0  0  0  0
   -0.1712   -0.6979    0.0000 C   0  0  0  0  0  0  0  0  0  0  0  0
    1.1387   -0.0305    0.0000 C   0  0  0  0  0  0  0  0  0  0  0  0
    0.8838    0.7541    0.0000 C   0  0  0  0  0  0  0  0  0  0  0  0
    1.9233   -0.2854    0.0000 C   0  0  0  0  0  0  0  0  0  0  0  0
    2.6378    0.1271    0.0000 C   0  0  0  0  0  0  0  0  0  0  0  0
    2.6378    0.9521    0.0000 O   0  0  0  0  0  0  0  0  0  0  0  0
    3.3523   -0.2854    0.0000 N   0  0  0  0  0  0  0  0  0  0  0  0
    3.3523   -1.1104    0.0000 N   0  0  0  0  0  0  0  0  0  0  0  0
    2.6378   -1.5229    0.0000 C   0  0  0  0  0  0  0  0  0  0  0  0
    1.9233   -1.1104    0.0000 C   0  0  0  0  0  0  0  0  0  0  0  0
  1  2  1  0  0  0  0
  2  3  1  0  0  0  0
  3  4  1  0  0  0  0
  3  5  1  0  0  0  0
  5  6  1  0  0  0  0
  5  7  2  0  0  0  0
  7  8  1  0  0  0  0
  8  9  2  0  0  0  0
  8 10  1  0  0  0  0
 10 11  1  0  0  0  0
 11 12  2  0  0  0  0
 12 13  1  0  0  0  0
  2 13  2  0  0  0  0
  7 13  1  0  0  0  0
M  END
>  <Catalog ID>
Z220354978

>  <PlateID>
1198308-R-SPFL-19

>  <Well>
D03

>  <MW (desalted)>
177.203

>  <ClogP>
0.291

>  <HBD>
1

>  <TPSA>
46.390

>  <RotBonds>
0

$$$$

            

 11 11  0  0  0  0            999 V2000
    0.7145    2.8875    0.0000 C   0  0  0  0  0  0  0  0  0  0  0  0
    0.7145    2.0625    0.0000 S   0  0  0  0  0  0  0  0  0  0  0  0
   -0.1105    2.0625    0.0000 O   0  0  0  0  0  0  0  0  0  0  0  0
    1.5395    2.0625    0.0000 O   0  0  0  0  0  0  0  0  0  0  0  0
    0.7145    1.2375    0.0000 C   0  0  0  0  0  0  0  0  0  0  0  0
    1.4289    0.8250    0.0000 C   0  0  0  0  0  0  0  0  0  0  0  0
    1.4289   -0.0000    0.0000 C   0  0  0  0  0  0  0  0  0  0  0  0
    0.7145   -0.4125    0.0000 C   0  0  0  0  0  0  0  0  0  0  0  0
    0.7145   -1.2375    0.0000 Cl  0  0  0  0  0  0  0  0  0  0  0  0
    0.0000    0.0000    0.0000 C   0  0  0  0  0  0  0  0  0  0  0  0
    0.0000    0.8250    0.0000 C   0  0  0  0  0  0  0  0  0  0  0  0
  1  2  1  0  0  0  0
  2  3  2  0  0  0  0
  2  4  2  0  0  0  0
  2  5  1  0  0  0  0
  5  6  2  0  0  0  0
  6  7  1  0  0  0  0
  7  8  2  0  0  0  0
  8  9  1  0  0  0  0
  8 10  1  0  0  0  0
 10 11  2  0  0  0  0
  5 11  1  0  0  0  0
M  END
>  <Catalog ID>
Z56757032

>  <PlateID>
1198308-R-SPFL-19

>  <Well>
D04

>  <MW (desalted)>
190.647

>  <ClogP>
1.340

>  <HBD>
0

>  <TPSA>
34.140

>  <RotBonds>
1

$$$$

            

 14 13  0  0  0  0            999 V2000
    0.0000    0.0000    0.0000 Cl  0  0  0  0  0  0  0  0  0  0  0  0
    2.0036    0.0000    0.0000 Cl  0  0  0  0  0  0  0  0  0  0  0  0
   -0.0000   -5.7750    0.0000 C   0  0  0  0  0  0  0  0  0  0  0  0
   -0.7145   -5.3625    0.0000 C   0  0  0  0  0  0  0  0  0  0  0  0
   -0.7145   -4.5375    0.0000 C   0  0  0  0  0  0  0  0  0  0  0  0
   -0.0000   -4.1250    0.0000 C   0  0  0  0  0  0  0  0  0  0  0  0
    0.7145   -4.5375    0.0000 C   0  0  0  0  0  0  0  0  0  0  0  0
    0.7145   -5.3625    0.0000 N   0  0  0  0  0  0  0  0  0  0  0  0
    0.0000   -3.3000    0.0000 C   0  0  0  0  0  0  0  0  0  0  0  0
   -0.7145   -2.8875    0.0000 C   0  0  0  0  0  0  0  0  0  0  0  0
   -0.7145   -2.0625    0.0000 C   0  0  0  0  0  0  0  0  0  0  0  0
    0.0000   -1.6500    0.0000 C   0  0  0  0  0  0  0  0  0  0  0  0
    0.7145   -2.0625    0.0000 C   0  0  0  0  0  0  0  0  0  0  0  0
    0.7145   -2.8875    0.0000 N   0  0  0  0  0  0  0  0  0  0  0  0
  3  4  1  0  0  0  0
  4  5  1  0  0  0  0
  5  6  2  0  0  0  0
  6  7  1  0  0  0  0
  7  8  1  0  0  0  0
  3  8  1  0  0  0  0
  6  9  1  0  0  0  0
  9 10  2  0  0  0  0
 10 11  1  0  0  0  0
 11 12  2  0  0  0  0
 12 13  1  0  0  0  0
 13 14  2  0  0  0  0
  9 14  1  0  0  0  0
M  END
>  <Catalog ID>
Z2373839498

>  <PlateID>
1198308-R-SPFL-19

>  <Well>
D05

>  <MW (desalted)>
160.216

>  <ClogP>
0.892

>  <HBD>
1

>  <TPSA>
24.920

>  <RotBonds>
1

$$$$

            

 15 16  0  0  0  0            999 V2000
   -0.4008    0.2575    0.0000 C   0  0  0  0  0  0  0  0  0  0  0  0
   -1.1153   -0.1550    0.0000 C   0  0  0  0  0  0  0  0  0  0  0  0
   -1.8297    0.2575    0.0000 N   0  0  0  0  0  0  0  0  0  0  0  0
   -2.5114   -0.2073    0.0000 C   0  0  0  0  0  0  0  0  0  0  0  0
   -3.2997    0.0359    0.0000 C   0  0  0  0  0  0  0  0  0  0  0  0
   -3.6011    0.8039    0.0000 C   0  0  0  0  0  0  0  0  0  0  0  0
   -3.1886    1.5183    0.0000 S   0  0  0  0  0  0  0  0  0  0  0  0
   -2.3729    1.6413    0.0000 C   0  0  0  0  0  0  0  0  0  0  0  0
   -1.7681    1.0802    0.0000 C   0  0  0  0  0  0  0  0  0  0  0  0
   -1.1153   -0.9800    0.0000 C   0  0  0  0  0  0  0  0  0  0  0  0
   -0.4008   -1.3925    0.0000 C   0  0  0  0  0  0  0  0  0  0  0  0
   -0.4008   -2.2175    0.0000 C   0  0  0  0  0  0  0  0  0  0  0  0
   -1.1153   -2.6300    0.0000 C   0  0  0  0  0  0  0  0  0  0  0  0
   -1.8297   -2.2175    0.0000 C   0  0  0  0  0  0  0  0  0  0  0  0
   -1.8297   -1.3925    0.0000 N   0  0  0  0  0  0  0  0  0  0  0  0
  1  2  1  0  0  0  0
  2  3  1  0  0  0  0
  3  4  1  0  0  0  0
  4  5  1  0  0  0  0
  5  6  1  0  0  0  0
  6  7  1  0  0  0  0
  7  8  1  0  0  0  0
  8  9  1  0  0  0  0
  3  9  1  0  0  0  0
  2 10  1  0  0  0  0
 10 11  2  0  0  0  0
 11 12  1  0  0  0  0
 12 13  2  0  0  0  0
 13 14  1  0  0  0  0
 14 15  2  0  0  0  0
 10 15  1  0  0  0  0
M  END
>  <Catalog ID>
Z1535574851

>  <PlateID>
1198308-R-SPFL-19

>  <Well>
D06

>  <MW (desalted)>
222.350

>  <ClogP>
1.593

>  <HBD>
0

>  <TPSA>
16.130

>  <RotBonds>
2

$$$$

            

 15 16  0  0  0  0            999 V2000
    0.5420    1.0573    0.0000 C   0  0  0  0  0  0  0  0  0  0  0  0
    0.5420    0.2323    0.0000 N   0  0  0  0  0  0  0  0  0  0  0  0
   -0.1725   -0.1802    0.0000 C   0  0  0  0  0  0  0  0  0  0  0  0
    1.2564   -0.1802    0.0000 C   0  0  0  0  0  0  0  0  0  0  0  0
    1.9709    0.2323    0.0000 O   0  0  0  0  0  0  0  0  0  0  0  0
    1.2564   -1.0052    0.0000 C   0  0  0  0  0  0  0  0  0  0  0  0
    1.9239   -1.4901    0.0000 C   0  0  0  0  0  0  0  0  0  0  0  0
    1.6689   -2.2748    0.0000 C   0  0  0  0  0  0  0  0  0  0  0  0
    0.8439   -2.2748    0.0000 N   0  0  0  0  0  0  0  0  0  0  0  0
    0.5890   -1.4901    0.0000 O   0  0  0  0  0  0  0  0  0  0  0  0
    2.1538   -2.9422    0.0000 C   0  0  0  0  0  0  0  0  0  0  0  0
    2.9788   -2.9422    0.0000 C   0  0  0  0  0  0  0  0  0  0  0  0
    3.2338   -3.7268    0.0000 C   0  0  0  0  0  0  0  0  0  0  0  0
    2.5663   -4.2117    0.0000 C   0  0  0  0  0  0  0  0  0  0  0  0
    1.8989   -3.7268    0.0000 C   0  0  0  0  0  0  0  0  0  0  0  0
  1  2  1  0  0  0  0
  2  3  1  0  0  0  0
  2  4  1  0  0  0  0
  4  5  2  0  0  0  0
  4  6  1  0  0  0  0
  6  7  2  0  0  0  0
  7  8  1  0  0  0  0
  8  9  2  0  0  0  0
  9 10  1  0  0  0  0
  6 10  1  0  0  0  0
  8 11  1  0  0  0  0
 11 12  1  0  0  0  0
 12 13  1  0  0  0  0
 13 14  1  0  0  0  0
 14 15  1  0  0  0  0
 11 15  1  0  0  0  0
M  END
>  <Catalog ID>
Z1302595798

>  <PlateID>
1198308-R-SPFL-19

>  <Well>
D07

>  <MW (desalted)>
208.257

>  <ClogP>
0.935

>  <HBD>
0

>  <TPSA>
46.340

>  <RotBonds>
2

$$$$

            

 13 14  0  0  0  0            999 V2000
    0.7145   -0.4125    0.0000 C   0  0  0  0  0  0  0  0  0  0  0  0
    0.7145   -1.2375    0.0000 N   0  0  0  0  0  0  0  0  0  0  0  0
    1.3819   -1.7224    0.0000 C   0  0  0  0  0  0  0  0  0  0  0  0
    1.1270   -2.5070    0.0000 C   0  0  0  0  0  0  0  0  0  0  0  0
    1.6119   -3.1745    0.0000 N   0  0  0  0  0  0  0  0  0  0  0  0
    0.3020   -2.5070    0.0000 C   0  0  0  0  0  0  0  0  0  0  0  0
    0.0470   -1.7224    0.0000 N   0  0  0  0  0  0  0  0  0  0  0  0
   -0.1830   -3.1745    0.0000 C   0  0  0  0  0  0  0  0  0  0  0  0
    0.1526   -3.9282    0.0000 C   0  0  0  0  0  0  0  0  0  0  0  0
   -0.3323   -4.5956    0.0000 C   0  0  0  0  0  0  0  0  0  0  0  0
   -1.1528   -4.5094    0.0000 C   0  0  0  0  0  0  0  0  0  0  0  0
   -1.4884   -3.7557    0.0000 C   0  0  0  0  0  0  0  0  0  0  0  0
   -1.0034   -3.0882    0.0000 C   0  0  0  0  0  0  0  0  0  0  0  0
  1  2  1  0  0  0  0
  2  3  1  0  0  0  0
  3  4  2  0  0  0  0
  4  5  1  0  0  0  0
  4  6  1  0  0  0  0
  6  7  2  0  0  0  0
  2  7  1  0  0  0  0
  6  8  1  0  0  0  0
  8  9  1  0  0  0  0
  9 10  1  0  0  0  0
 10 11  1  0  0  0  0
 11 12  1  0  0  0  0
 12 13  1  0  0  0  0
  8 13  1  0  0  0  0
M  END
>  <Catalog ID>
Z1592096087

>  <PlateID>
1198308-R-SPFL-19

>  <Well>
D08

>  <MW (desalted)>
179.262

>  <ClogP>
1.562

>  <HBD>
1

>  <TPSA>
43.840

>  <RotBonds>
1

$$$$

            

 13 12  0  0  0  0            999 V2000
    0.0000    0.0000    0.0000 Cl  0  0  0  0  0  0  0  0  0  0  0  0
    2.0036    0.0000    0.0000 Cl  0  0  0  0  0  0  0  0  0  0  0  0
   -1.1656   -1.6500    0.0000 C   0  0  0  0  0  0  0  0  0  0  0  0
   -0.8300   -2.4037    0.0000 N   0  0  0  0  0  0  0  0  0  0  0  0
   -0.0230   -2.5752    0.0000 C   0  0  0  0  0  0  0  0  0  0  0  0
    0.0632   -3.3957    0.0000 C   0  0  0  0  0  0  0  0  0  0  0  0
    0.7777   -3.8082    0.0000 C   0  0  0  0  0  0  0  0  0  0  0  0
    0.7777   -4.6332    0.0000 C   0  0  0  0  0  0  0  0  0  0  0  0
    1.3610   -5.2165    0.0000 C   0  0  0  0  0  0  0  0  0  0  0  0
    0.7777   -5.7999    0.0000 N   0  0  0  0  0  0  0  0  0  0  0  0
    0.1943   -5.2165    0.0000 C   0  0  0  0  0  0  0  0  0  0  0  0
   -0.6905   -3.7312    0.0000 C   0  0  0  0  0  0  0  0  0  0  0  0
   -1.2425   -3.1181    0.0000 N   0  0  0  0  0  0  0  0  0  0  0  0
  3  4  1  0  0  0  0
  4  5  1  0  0  0  0
  5  6  2  0  0  0  0
  6  7  1  0  0  0  0
  7  8  1  0  0  0  0
  8  9  1  0  0  0  0
  9 10  1  0  0  0  0
 10 11  1  0  0  0  0
  8 11  1  0  0  0  0
  6 12  1  0  0  0  0
 12 13  2  0  0  0  0
  4 13  1  0  0  0  0
M  END
>  <Catalog ID>
Z2587654512

>  <PlateID>
1198308-R-SPFL-19

>  <Well>
D09

>  <MW (desalted)>
151.209

>  <ClogP>
-0.361

>  <HBD>
1

>  <TPSA>
29.850

>  <RotBonds>
2

$$$$

            

 14 15  0  0  0  0            999 V2000
    0.1636   -0.1229    0.0000 C   0  0  0  0  0  0  0  0  0  0  0  0
    0.1636   -0.9479    0.0000 C   0  0  0  0  0  0  0  0  0  0  0  0
    0.8311   -1.4329    0.0000 C   0  0  0  0  0  0  0  0  0  0  0  0
    0.5761   -2.2175    0.0000 C   0  0  0  0  0  0  0  0  0  0  0  0
   -0.2489   -2.2175    0.0000 C   0  0  0  0  0  0  0  0  0  0  0  0
   -0.5038   -1.4329    0.0000 O   0  0  0  0  0  0  0  0  0  0  0  0
   -0.7338   -2.8849    0.0000 C   0  0  0  0  0  0  0  0  0  0  0  0
   -1.3469   -2.3329    0.0000 C   0  0  0  0  0  0  0  0  0  0  0  0
   -0.0193   -3.2974    0.0000 N   0  0  0  0  0  0  0  0  0  0  0  0
   -0.1909   -4.1044    0.0000 C   0  0  0  0  0  0  0  0  0  0  0  0
    0.3612   -4.7175    0.0000 O   0  0  0  0  0  0  0  0  0  0  0  0
   -1.0113   -4.1906    0.0000 N   0  0  0  0  0  0  0  0  0  0  0  0
   -1.3469   -3.4370    0.0000 C   0  0  0  0  0  0  0  0  0  0  0  0
   -2.1539   -3.2654    0.0000 O   0  0  0  0  0  0  0  0  0  0  0  0
  1  2  1  0  0  0  0
  2  3  2  0  0  0  0
  3  4  1  0  0  0  0
  4  5  2  0  0  0  0
  5  6  1  0  0  0  0
  2  6  1  0  0  0  0
  5  7  1  0  0  0  0
  7  8  1  0  0  0  0
  7  9  1  0  0  0  0
  9 10  1  0  0  0  0
 10 11  2  0  0  0  0
 10 12  1  0  0  0  0
 12 13  1  0  0  0  0
  7 13  1  0  0  0  0
 13 14  2  0  0  0  0
M  END
>  <Catalog ID>
Z240132138

>  <PlateID>
1198308-R-SPFL-19

>  <Well>
E02

>  <MW (desalted)>
194.187

>  <ClogP>
0.721

>  <HBD>
2

>  <TPSA>
71.340

>  <RotBonds>
1

$$$$

            

 13 14  0  0  0  0            999 V2000
    0.8838   -2.1500    0.0000 C   0  0  0  0  0  0  0  0  0  0  0  0
    1.1387   -1.3654    0.0000 N   0  0  0  0  0  0  0  0  0  0  0  0
    0.6538   -0.6979    0.0000 C   0  0  0  0  0  0  0  0  0  0  0  0
    1.1387   -0.0305    0.0000 C   0  0  0  0  0  0  0  0  0  0  0  0
    1.9233   -0.2854    0.0000 C   0  0  0  0  0  0  0  0  0  0  0  0
    2.6378    0.1271    0.0000 C   0  0  0  0  0  0  0  0  0  0  0  0
    3.3523   -0.2854    0.0000 C   0  0  0  0  0  0  0  0  0  0  0  0
    3.3523   -1.1104    0.0000 C   0  0  0  0  0  0  0  0  0  0  0  0
    2.6378   -1.5229    0.0000 C   0  0  0  0  0  0  0  0  0  0  0  0
    1.9233   -1.1104    0.0000 C   0  0  0  0  0  0  0  0  0  0  0  0
    2.6378    0.9521    0.0000 C   0  0  0  0  0  0  0  0  0  0  0  0
    1.9233    1.3646    0.0000 O   0  0  0  0  0  0  0  0  0  0  0  0
    3.3523    1.3646    0.0000 O   0  0  0  0  0  0  0  0  0  0  0  0
  1  2  1  0  0  0  0
  2  3  1  0  0  0  0
  3  4  2  0  0  0  0
  4  5  1  0  0  0  0
  5  6  2  0  0  0  0
  6  7  1  0  0  0  0
  7  8  2  0  0  0  0
  8  9  1  0  0  0  0
  9 10  2  0  0  0  0
  2 10  1  0  0  0  0
  5 10  1  0  0  0  0
  6 11  1  0  0  0  0
 11 12  2  0  0  0  0
 11 13  1  0  0  0  0
M  END
>  <Catalog ID>
Z415653582

>  <PlateID>
1198308-R-SPFL-19

>  <Well>
E03

>  <MW (desalted)>
175.184

>  <ClogP>
2.468

>  <HBD>
1

>  <TPSA>
42.230

>  <RotBonds>
1

$$$$

            

 13 14  0  0  0  0            999 V2000
    1.4289   -0.0000    0.0000 O   0  0  0  0  0  0  0  0  0  0  0  0
    0.7145   -0.4125    0.0000 C   0  0  0  0  0  0  0  0  0  0  0  0
    0.7145   -1.2375    0.0000 C   0  0  0  0  0  0  0  0  0  0  0  0
    1.3819   -1.7224    0.0000 C   0  0  0  0  0  0  0  0  0  0  0  0
    1.1270   -2.5070    0.0000 N   0  0  0  0  0  0  0  0  0  0  0  0
    0.3020   -2.5070    0.0000 N   0  0  0  0  0  0  0  0  0  0  0  0
    0.0470   -1.7224    0.0000 C   0  0  0  0  0  0  0  0  0  0  0  0
   -0.1830   -3.1745    0.0000 C   0  0  0  0  0  0  0  0  0  0  0  0
    0.1526   -3.9282    0.0000 C   0  0  0  0  0  0  0  0  0  0  0  0
   -0.3323   -4.5956    0.0000 C   0  0  0  0  0  0  0  0  0  0  0  0
   -1.1528   -4.5094    0.0000 C   0  0  0  0  0  0  0  0  0  0  0  0
   -1.4884   -3.7557    0.0000 C   0  0  0  0  0  0  0  0  0  0  0  0
   -1.0034   -3.0882    0.0000 C   0  0  0  0  0  0  0  0  0  0  0  0
  1  2  1  0  0  0  0
  2  3  1  0  0  0  0
  3  4  1  0  0  0  0
  4  5  2  0  0  0  0
  5  6  1  0  0  0  0
  6  7  1  0  0  0  0
  3  7  2  0  0  0  0
  6  8  1  0  0  0  0
  8  9  2  0  0  0  0
  9 10  1  0  0  0  0
 10 11  2  0  0  0  0
 11 12  1  0  0  0  0
 12 13  2  0  0  0  0
  8 13  1  0  0  0  0
M  END
>  <Catalog ID>
Z147527712

>  <PlateID>
1198308-R-SPFL-19

>  <Well>
E04

>  <MW (desalted)>
174.199

>  <ClogP>
1.158

>  <HBD>
1

>  <TPSA>
38.050

>  <RotBonds>
2

$$$$

            

 15 15  0  0  0  0            999 V2000
    0.0000    0.0000    0.0000 Cl  0  0  0  0  0  0  0  0  0  0  0  0
    2.3571    1.2230    0.0000 N   0  0  0  0  0  0  0  0  0  0  0  0
    3.0716    1.6355    0.0000 C   0  0  0  0  0  0  0  0  0  0  0  0
    3.7861    1.2230    0.0000 C   0  0  0  0  0  0  0  0  0  0  0  0
    4.5006    1.6355    0.0000 C   0  0  0  0  0  0  0  0  0  0  0  0
    5.2150    1.2230    0.0000 C   0  0  0  0  0  0  0  0  0  0  0  0
    5.2150    0.3980    0.0000 C   0  0  0  0  0  0  0  0  0  0  0  0
    5.9295   -0.0145    0.0000 C   0  0  0  0  0  0  0  0  0  0  0  0
    5.9295   -0.8395    0.0000 N   0  0  0  0  0  0  0  0  0  0  0  0
    6.5969   -1.3245    0.0000 C   0  0  0  0  0  0  0  0  0  0  0  0
    6.3420   -2.1091    0.0000 C   0  0  0  0  0  0  0  0  0  0  0  0
    5.5170   -2.1091    0.0000 C   0  0  0  0  0  0  0  0  0  0  0  0
    5.2621   -1.3245    0.0000 N   0  0  0  0  0  0  0  0  0  0  0  0
    4.5006   -0.0145    0.0000 C   0  0  0  0  0  0  0  0  0  0  0  0
    3.7861    0.3980    0.0000 C   0  0  0  0  0  0  0  0  0  0  0  0
  2  3  1  0  0  0  0
  3  4  1  0  0  0  0
  4  5  2  0  0  0  0
  5  6  1  0  0  0  0
  6  7  2  0  0  0  0
  7  8  1  0  0  0  0
  8  9  1  0  0  0  0
  9 10  1  0  0  0  0
 10 11  2  0  0  0  0
 11 12  1  0  0  0  0
 12 13  2  0  0  0  0
  9 13  1  0  0  0  0
  7 14  1  0  0  0  0
 14 15  2  0  0  0  0
  4 15  1  0  0  0  0
M  END
>  <Catalog ID>
Z135300966

>  <PlateID>
1198308-R-SPFL-19

>  <Well>
E05

>  <MW (desalted)>
187.241

>  <ClogP>
1.167

>  <HBD>
1

>  <TPSA>
43.840

>  <RotBonds>
3

$$$$

            

 15 16  0  0  0  0            999 V2000
    0.8662   -0.4179    0.0000 C   0  0  0  0  0  0  0  0  0  0  0  0
    1.5806   -0.8304    0.0000 C   0  0  0  0  0  0  0  0  0  0  0  0
    1.5806   -1.6554    0.0000 N   0  0  0  0  0  0  0  0  0  0  0  0
    2.2481   -2.1403    0.0000 C   0  0  0  0  0  0  0  0  0  0  0  0
    1.9931   -2.9249    0.0000 C   0  0  0  0  0  0  0  0  0  0  0  0
    2.4781   -3.5924    0.0000 C   0  0  0  0  0  0  0  0  0  0  0  0
    2.1425   -4.3460    0.0000 N   0  0  0  0  0  0  0  0  0  0  0  0
    2.6760   -4.9754    0.0000 C   0  0  0  0  0  0  0  0  0  0  0  0
    2.5165   -5.7848    0.0000 C   0  0  0  0  0  0  0  0  0  0  0  0
    1.7843   -6.1649    0.0000 C   0  0  0  0  0  0  0  0  0  0  0  0
    1.0306   -5.8293    0.0000 S   0  0  0  0  0  0  0  0  0  0  0  0
    0.8230   -5.0308    0.0000 C   0  0  0  0  0  0  0  0  0  0  0  0
    1.3179   -4.3707    0.0000 C   0  0  0  0  0  0  0  0  0  0  0  0
    1.1681   -2.9249    0.0000 C   0  0  0  0  0  0  0  0  0  0  0  0
    0.9132   -2.1403    0.0000 N   0  0  0  0  0  0  0  0  0  0  0  0
  1  2  1  0  0  0  0
  2  3  1  0  0  0  0
  3  4  1  0  0  0  0
  4  5  2  0  0  0  0
  5  6  1  0  0  0  0
  6  7  1  0  0  0  0
  7  8  1  0  0  0  0
  8  9  1  0  0  0  0
  9 10  1  0  0  0  0
 10 11  1  0  0  0  0
 11 12  1  0  0  0  0
 12 13  1  0  0  0  0
  7 13  1  0  0  0  0
  5 14  1  0  0  0  0
 14 15  2  0  0  0  0
  3 15  1  0  0  0  0
M  END
>  <Catalog ID>
Z1632782344

>  <PlateID>
1198308-R-SPFL-19

>  <Well>
E06

>  <MW (desalted)>
225.354

>  <ClogP>
1.425

>  <HBD>
0

>  <TPSA>
21.060

>  <RotBonds>
3

$$$$

            

 16 17  0  0  0  0            999 V2000
    2.0018   -0.5458    0.0000 O   0  0  0  0  0  0  0  0  0  0  0  0
    2.7163   -0.9583    0.0000 C   0  0  0  0  0  0  0  0  0  0  0  0
    2.7163   -1.7833    0.0000 C   0  0  0  0  0  0  0  0  0  0  0  0
    2.0018   -2.1958    0.0000 C   0  0  0  0  0  0  0  0  0  0  0  0
    2.0018   -3.0208    0.0000 N   0  0  0  0  0  0  0  0  0  0  0  0
    2.6693   -3.5058    0.0000 C   0  0  0  0  0  0  0  0  0  0  0  0
    2.4143   -4.2904    0.0000 C   0  0  0  0  0  0  0  0  0  0  0  0
    1.5893   -4.2904    0.0000 C   0  0  0  0  0  0  0  0  0  0  0  0
    1.3344   -3.5058    0.0000 N   0  0  0  0  0  0  0  0  0  0  0  0
    3.4308   -0.5458    0.0000 N   0  0  0  0  0  0  0  0  0  0  0  0
    3.3691    0.2768    0.0000 C   0  0  0  0  0  0  0  0  0  0  0  0
    3.9739    0.8380    0.0000 C   0  0  0  0  0  0  0  0  0  0  0  0
    4.7897    0.7150    0.0000 C   0  0  0  0  0  0  0  0  0  0  0  0
    5.2022    0.0006    0.0000 C   0  0  0  0  0  0  0  0  0  0  0  0
    4.9008   -0.7674    0.0000 C   0  0  0  0  0  0  0  0  0  0  0  0
    4.1124   -1.0106    0.0000 C   0  0  0  0  0  0  0  0  0  0  0  0
  1  2  2  0  0  0  0
  2  3  1  0  0  0  0
  3  4  1  0  0  0  0
  4  5  1  0  0  0  0
  5  6  1  0  0  0  0
  6  7  2  0  0  0  0
  7  8  1  0  0  0  0
  8  9  2  0  0  0  0
  5  9  1  0  0  0  0
  2 10  1  0  0  0  0
 10 11  1  0  0  0  0
 11 12  1  0  0  0  0
 12 13  1  0  0  0  0
 13 14  1  0  0  0  0
 14 15  1  0  0  0  0
 15 16  1  0  0  0  0
 10 16  1  0  0  0  0
M  END
>  <Catalog ID>
Z377150348

>  <PlateID>
1198308-R-SPFL-19

>  <Well>
E07

>  <MW (desalted)>
221.299

>  <ClogP>
1.320

>  <HBD>
0

>  <TPSA>
38.130

>  <RotBonds>
3

$$$$

            

 10 10  0  0  1  0            999 V2000
    0.0000    2.4750    0.0000 C   0  0  0  0  0  0  0  0  0  0  0  0
    0.7145    2.0625    0.0000 C   0  0  2  0  0  0  0  0  0  0  0  0
    1.4289    2.4750    0.0000 N   0  0  0  0  0  0  0  0  0  0  0  0
    0.7145    1.2375    0.0000 C   0  0  0  0  0  0  0  0  0  0  0  0
    1.4289    0.8250    0.0000 C   0  0  0  0  0  0  0  0  0  0  0  0
    1.4289   -0.0000    0.0000 N   0  0  0  0  0  0  0  0  0  0  0  0
    0.7145   -0.4125    0.0000 C   0  0  0  0  0  0  0  0  0  0  0  0
    0.0000    0.0000    0.0000 C   0  0  0  0  0  0  0  0  0  0  0  0
   -0.7145   -0.4125    0.0000 F   0  0  0  0  0  0  0  0  0  0  0  0
    0.0000    0.8250    0.0000 C   0  0  0  0  0  0  0  0  0  0  0  0
  2  1  1  0  0  0  0
  2  3  1  6  0  0  0
  2  4  1  0  0  0  0
  4  5  2  0  0  0  0
  5  6  1  0  0  0  0
  6  7  2  0  0  0  0
  7  8  1  0  0  0  0
  8  9  1  0  0  0  0
  8 10  2  0  0  0  0
  4 10  1  0  0  0  0
M  END
>  <Catalog ID>
Z1198186491

>  <PlateID>
1198308-R-SPFL-19

>  <Well>
E08

>  <MW (desalted)>
140.158

>  <ClogP>
0.133

>  <HBD>
1

>  <TPSA>
38.910

>  <RotBonds>
1

$$$$

            

 12 13  0  0  0  0            999 V2000
   -0.1712   -0.6979    0.0000 C   0  0  0  0  0  0  0  0  0  0  0  0
    0.6538   -0.6979    0.0000 C   0  0  0  0  0  0  0  0  0  0  0  0
    1.1387   -0.0305    0.0000 N   0  0  0  0  0  0  0  0  0  0  0  0
    1.9233   -0.2854    0.0000 C   0  0  0  0  0  0  0  0  0  0  0  0
    2.6378    0.1271    0.0000 C   0  0  0  0  0  0  0  0  0  0  0  0
    3.3523   -0.2854    0.0000 C   0  0  0  0  0  0  0  0  0  0  0  0
    4.0668    0.1271    0.0000 C   0  0  0  0  0  0  0  0  0  0  0  0
    4.0668    0.9521    0.0000 O   0  0  0  0  0  0  0  0  0  0  0  0
    3.3523   -1.1104    0.0000 C   0  0  0  0  0  0  0  0  0  0  0  0
    2.6378   -1.5229    0.0000 C   0  0  0  0  0  0  0  0  0  0  0  0
    1.9233   -1.1104    0.0000 C   0  0  0  0  0  0  0  0  0  0  0  0
    1.1387   -1.3654    0.0000 S   0  0  0  0  0  0  0  0  0  0  0  0
  1  2  1  0  0  0  0
  2  3  2  0  0  0  0
  3  4  1  0  0  0  0
  4  5  2  0  0  0  0
  5  6  1  0  0  0  0
  6  7  1  0  0  0  0
  7  8  1  0  0  0  0
  6  9  2  0  0  0  0
  9 10  1  0  0  0  0
 10 11  2  0  0  0  0
  4 11  1  0  0  0  0
 11 12  1  0  0  0  0
  2 12  1  0  0  0  0
M  END
>  <Catalog ID>
Z56824171

>  <PlateID>
1198308-R-SPFL-19

>  <Well>
F02

>  <MW (desalted)>
179.239

>  <ClogP>
1.541

>  <HBD>
1

>  <TPSA>
33.120

>  <RotBonds>
1

$$$$

            

 13 14  0  0  0  0            999 V2000
    1.4289   -0.0000    0.0000 O   0  0  0  0  0  0  0  0  0  0  0  0
    0.7145   -0.4125    0.0000 C   0  0  0  0  0  0  0  0  0  0  0  0
    0.7145   -1.2375    0.0000 C   0  0  0  0  0  0  0  0  0  0  0  0
    1.3819   -1.7224    0.0000 N   0  0  0  0  0  0  0  0  0  0  0  0
    1.1270   -2.5070    0.0000 O   0  0  0  0  0  0  0  0  0  0  0  0
    0.3020   -2.5070    0.0000 C   0  0  0  0  0  0  0  0  0  0  0  0
    0.0470   -1.7224    0.0000 N   0  0  0  0  0  0  0  0  0  0  0  0
   -0.1830   -3.1745    0.0000 C   0  0  0  0  0  0  0  0  0  0  0  0
    0.1526   -3.9282    0.0000 C   0  0  0  0  0  0  0  0  0  0  0  0
   -0.3323   -4.5956    0.0000 C   0  0  0  0  0  0  0  0  0  0  0  0
   -1.1528   -4.5094    0.0000 C   0  0  0  0  0  0  0  0  0  0  0  0
   -1.4884   -3.7557    0.0000 C   0  0  0  0  0  0  0  0  0  0  0  0
   -1.0034   -3.0882    0.0000 C   0  0  0  0  0  0  0  0  0  0  0  0
  1  2  1  0  0  0  0
  2  3  1  0  0  0  0
  3  4  2  0  0  0  0
  4  5  1  0  0  0  0
  5  6  1  0  0  0  0
  6  7  2  0  0  0  0
  3  7  1  0  0  0  0
  6  8  1  0  0  0  0
  8  9  2  0  0  0  0
  9 10  1  0  0  0  0
 10 11  2  0  0  0  0
 11 12  1  0  0  0  0
 12 13  2  0  0  0  0
  8 13  1  0  0  0  0
M  END
>  <Catalog ID>
Z431952840

>  <PlateID>
1198308-R-SPFL-19

>  <Well>
F03

>  <MW (desalted)>
176.172

>  <ClogP>
0.554

>  <HBD>
1

>  <TPSA>
59.150

>  <RotBonds>
2

$$$$

            

 13 14  0  0  0  0            999 V2000
    1.0953   -0.0756    0.0000 C   0  0  0  0  0  0  0  0  0  0  0  0
    1.6473   -0.6887    0.0000 C   0  0  0  0  0  0  0  0  0  0  0  0
    2.3148   -1.1736    0.0000 N   0  0  0  0  0  0  0  0  0  0  0  0
    2.0598   -1.9582    0.0000 C   0  0  0  0  0  0  0  0  0  0  0  0
    2.5447   -2.6257    0.0000 O   0  0  0  0  0  0  0  0  0  0  0  0
    1.2348   -1.9582    0.0000 N   0  0  0  0  0  0  0  0  0  0  0  0
    0.9799   -1.1736    0.0000 C   0  0  0  0  0  0  0  0  0  0  0  0
    0.1953   -0.9187    0.0000 O   0  0  0  0  0  0  0  0  0  0  0  0
    2.1994   -0.0756    0.0000 C   0  0  0  0  0  0  0  0  0  0  0  0
    2.0278    0.7314    0.0000 C   0  0  0  0  0  0  0  0  0  0  0  0
    2.7423    1.1439    0.0000 C   0  0  0  0  0  0  0  0  0  0  0  0
    3.3554    0.5919    0.0000 C   0  0  0  0  0  0  0  0  0  0  0  0
    3.0198   -0.1618    0.0000 S   0  0  0  0  0  0  0  0  0  0  0  0
  1  2  1  0  0  0  0
  2  3  1  0  0  0  0
  3  4  1  0  0  0  0
  4  5  2  0  0  0  0
  4  6  1  0  0  0  0
  6  7  1  0  0  0  0
  2  7  1  0  0  0  0
  7  8  2  0  0  0  0
  2  9  1  0  0  0  0
  9 10  2  0  0  0  0
 10 11  1  0  0  0  0
 11 12  2  0  0  0  0
 12 13  1  0  0  0  0
  9 13  1  0  0  0  0
M  END
>  <Catalog ID>
Z166624044

>  <PlateID>
1198308-R-SPFL-19

>  <Well>
F04

>  <MW (desalted)>
196.226

>  <ClogP>
0.692

>  <HBD>
2

>  <TPSA>
58.200

>  <RotBonds>
1

$$$$

            

 15 15  0  0  0  0            999 V2000
    1.2448    1.8695    0.0000 C   0  0  0  0  0  0  0  0  0  0  0  0
    0.7145    1.2375    0.0000 C   0  0  0  0  0  0  0  0  0  0  0  0
    0.1842    1.8695    0.0000 C   0  0  0  0  0  0  0  0  0  0  0  0
    1.4289    0.8250    0.0000 C   0  0  0  0  0  0  0  0  0  0  0  0
    1.4289   -0.0000    0.0000 N   0  0  0  0  0  0  0  0  0  0  0  0
    0.7145   -0.4125    0.0000 C   0  0  0  0  0  0  0  0  0  0  0  0
    0.0000    0.0000    0.0000 C   0  0  0  0  0  0  0  0  0  0  0  0
    0.0000    0.8250    0.0000 O   0  0  0  0  0  0  0  0  0  0  0  0
    2.1434   -0.4125    0.0000 C   0  0  0  0  0  0  0  0  0  0  0  0
    2.8579   -0.0000    0.0000 O   0  0  0  0  0  0  0  0  0  0  0  0
    2.1434   -1.2375    0.0000 C   0  0  0  0  0  0  0  0  0  0  0  0
    2.8579   -1.6500    0.0000 C   0  0  0  0  0  0  0  0  0  0  0  0
    3.5724   -2.0625    0.0000 F   0  0  0  0  0  0  0  0  0  0  0  0
    2.4454   -2.3645    0.0000 F   0  0  0  0  0  0  0  0  0  0  0  0
    3.2704   -0.9355    0.0000 F   0  0  0  0  0  0  0  0  0  0  0  0
  1  2  1  0  0  0  0
  2  3  1  0  0  0  0
  2  4  1  0  0  0  0
  4  5  1  0  0  0  0
  5  6  1  0  0  0  0
  6  7  1  0  0  0  0
  7  8  1  0  0  0  0
  2  8  1  0  0  0  0
  5  9  1  0  0  0  0
  9 10  2  0  0  0  0
  9 11  1  0  0  0  0
 11 12  1  0  0  0  0
 12 13  1  0  0  0  0
 12 14  1  0  0  0  0
 12 15  1  0  0  0  0
M  END
>  <Catalog ID>
Z394039592

>  <PlateID>
1198308-R-SPFL-19

>  <Well>
F05

>  <MW (desalted)>
225.208

>  <ClogP>
1.018

>  <HBD>
0

>  <TPSA>
29.540

>  <RotBonds>
2

$$$$

            

 15 16  0  0  0  0            999 V2000
    0.0000    0.0000    0.0000 O   0  0  0  0  0  0  0  0  0  0  0  0
    0.7145   -0.4125    0.0000 C   0  0  0  0  0  0  0  0  0  0  0  0
    0.7145   -1.2375    0.0000 C   0  0  0  0  0  0  0  0  0  0  0  0
    1.4289   -1.6500    0.0000 C   0  0  0  0  0  0  0  0  0  0  0  0
    1.4289   -2.4750    0.0000 C   0  0  0  0  0  0  0  0  0  0  0  0
    0.7145   -2.8875    0.0000 N   0  0  0  0  0  0  0  0  0  0  0  0
    0.0000   -2.4750    0.0000 C   0  0  0  0  0  0  0  0  0  0  0  0
    0.0000   -1.6500    0.0000 C   0  0  0  0  0  0  0  0  0  0  0  0
    0.7145   -3.7125    0.0000 C   0  0  0  0  0  0  0  0  0  0  0  0
    1.4289   -4.1250    0.0000 C   0  0  0  0  0  0  0  0  0  0  0  0
    1.4289   -4.9500    0.0000 C   0  0  0  0  0  0  0  0  0  0  0  0
    0.7145   -5.3625    0.0000 C   0  0  0  0  0  0  0  0  0  0  0  0
    0.0000   -4.9500    0.0000 C   0  0  0  0  0  0  0  0  0  0  0  0
    0.0000   -4.1250    0.0000 C   0  0  0  0  0  0  0  0  0  0  0  0
   -0.7145   -3.7125    0.0000 F   0  0  0  0  0  0  0  0  0  0  0  0
  1  2  1  0  0  0  0
  2  3  1  0  0  0  0
  3  4  1  0  0  0  0
  4  5  1  0  0  0  0
  5  6  1  0  0  0  0
  6  7  1  0  0  0  0
  7  8  1  0  0  0  0
  3  8  1  0  0  0  0
  6  9  1  0  0  0  0
  9 10  2  0  0  0  0
 10 11  1  0  0  0  0
 11 12  2  0  0  0  0
 12 13  1  0  0  0  0
 13 14  2  0  0  0  0
  9 14  1  0  0  0  0
 14 15  1  0  0  0  0
M  END
>  <Catalog ID>
Z1509475518

>  <PlateID>
1198308-R-SPFL-19

>  <Well>
F06

>  <MW (desalted)>
209.260

>  <ClogP>
1.826

>  <HBD>
1

>  <TPSA>
23.470

>  <RotBonds>
2

$$$$

            

 14 15  0  0  0  0            999 V2000
    2.5330    0.1698    0.0000 C   0  0  0  0  0  0  0  0  0  0  0  0
    2.5330   -0.6552    0.0000 C   0  0  0  0  0  0  0  0  0  0  0  0
    3.2004   -1.1401    0.0000 N   0  0  0  0  0  0  0  0  0  0  0  0
    2.9455   -1.9248    0.0000 C   0  0  0  0  0  0  0  0  0  0  0  0
    3.4304   -2.5922    0.0000 C   0  0  0  0  0  0  0  0  0  0  0  0
    4.2509   -2.5060    0.0000 O   0  0  0  0  0  0  0  0  0  0  0  0
    3.0948   -3.3459    0.0000 N   0  0  0  0  0  0  0  0  0  0  0  0
    3.5073   -4.0603    0.0000 C   0  0  0  0  0  0  0  0  0  0  0  0
    2.9553   -4.6734    0.0000 C   0  0  0  0  0  0  0  0  0  0  0  0
    2.2016   -4.3379    0.0000 C   0  0  0  0  0  0  0  0  0  0  0  0
    2.2879   -3.5174    0.0000 C   0  0  0  0  0  0  0  0  0  0  0  0
    2.1205   -1.9248    0.0000 C   0  0  0  0  0  0  0  0  0  0  0  0
    1.6356   -2.5922    0.0000 C   0  0  0  0  0  0  0  0  0  0  0  0
    1.8655   -1.1401    0.0000 S   0  0  0  0  0  0  0  0  0  0  0  0
  1  2  1  0  0  0  0
  2  3  2  0  0  0  0
  3  4  1  0  0  0  0
  4  5  1  0  0  0  0
  5  6  2  0  0  0  0
  5  7  1  0  0  0  0
  7  8  1  0  0  0  0
  8  9  1  0  0  0  0
  9 10  1  0  0  0  0
 10 11  1  0  0  0  0
  7 11  1  0  0  0  0
  4 12  2  0  0  0  0
 12 13  1  0  0  0  0
 12 14  1  0  0  0  0
  2 14  1  0  0  0  0
M  END
>  <Catalog ID>
Z1497321453

>  <PlateID>
1198308-R-SPFL-19

>  <Well>
F07

>  <MW (desalted)>
210.296

>  <ClogP>
0.967

>  <HBD>
0

>  <TPSA>
33.200

>  <RotBonds>
1

$$$$

            

 11 11  0  0  0  0            999 V2000
    1.2822    2.3518    0.0000 F   0  0  0  0  0  0  0  0  0  0  0  0
    0.5678    1.9393    0.0000 C   0  0  0  0  0  0  0  0  0  0  0  0
   -0.1467    2.3518    0.0000 F   0  0  0  0  0  0  0  0  0  0  0  0
    0.5678    1.1143    0.0000 N   0  0  0  0  0  0  0  0  0  0  0  0
    1.2352    0.6294    0.0000 C   0  0  0  0  0  0  0  0  0  0  0  0
    0.9803   -0.1553    0.0000 C   0  0  0  0  0  0  0  0  0  0  0  0
    0.1553   -0.1553    0.0000 N   0  0  0  0  0  0  0  0  0  0  0  0
   -0.0997    0.6294    0.0000 C   0  0  0  0  0  0  0  0  0  0  0  0
   -0.8843    0.8843    0.0000 C   0  0  0  0  0  0  0  0  0  0  0  0
   -1.4974    0.3323    0.0000 C   0  0  0  0  0  0  0  0  0  0  0  0
   -2.1105   -0.2198    0.0000 N   0  0  0  0  0  0  0  0  0  0  0  0
  1  2  1  0  0  0  0
  2  3  1  0  0  0  0
  2  4  1  0  0  0  0
  4  5  1  0  0  0  0
  5  6  2  0  0  0  0
  6  7  1  0  0  0  0
  7  8  2  0  0  0  0
  4  8  1  0  0  0  0
  8  9  1  0  0  0  0
  9 10  1  0  0  0  0
 10 11  3  0  0  0  0
M  END
>  <Catalog ID>
Z228589624

>  <PlateID>
1198308-R-SPFL-19

>  <Well>
F08

>  <MW (desalted)>
157.121

>  <ClogP>
-0.295

>  <HBD>
0

>  <TPSA>
41.610

>  <RotBonds>
2

$$$$

            

 13 13  0  0  0  0            999 V2000
    0.0000    3.3000    0.0000 C   0  0  0  0  0  0  0  0  0  0  0  0
    0.0000    2.4750    0.0000 N   0  0  0  0  0  0  0  0  0  0  0  0
   -0.7145    2.0625    0.0000 C   0  0  0  0  0  0  0  0  0  0  0  0
    0.7145    2.0625    0.0000 C   0  0  0  0  0  0  0  0  0  0  0  0
    1.4289    2.4750    0.0000 O   0  0  0  0  0  0  0  0  0  0  0  0
    0.7145    1.2375    0.0000 C   0  0  0  0  0  0  0  0  0  0  0  0
    1.4289    0.8250    0.0000 C   0  0  0  0  0  0  0  0  0  0  0  0
    1.4289   -0.0000    0.0000 C   0  0  0  0  0  0  0  0  0  0  0  0
    2.1434   -0.4125    0.0000 F   0  0  0  0  0  0  0  0  0  0  0  0
    0.7145   -0.4125    0.0000 C   0  0  0  0  0  0  0  0  0  0  0  0
    0.0000    0.0000    0.0000 C   0  0  0  0  0  0  0  0  0  0  0  0
   -0.7145   -0.4125    0.0000 F   0  0  0  0  0  0  0  0  0  0  0  0
    0.0000    0.8250    0.0000 C   0  0  0  0  0  0  0  0  0  0  0  0
  1  2  1  0  0  0  0
  2  3  1  0  0  0  0
  2  4  1  0  0  0  0
  4  5  2  0  0  0  0
  4  6  1  0  0  0  0
  6  7  2  0  0  0  0
  7  8  1  0  0  0  0
  8  9  1  0  0  0  0
  8 10  2  0  0  0  0
 10 11  1  0  0  0  0
 11 12  1  0  0  0  0
 11 13  2  0  0  0  0
  6 13  1  0  0  0  0
M  END
>  <Catalog ID>
Z32013275

>  <PlateID>
1198308-R-SPFL-19

>  <Well>
G02

>  <MW (desalted)>
185.171

>  <ClogP>
0.995

>  <HBD>
0

>  <TPSA>
20.310

>  <RotBonds>
1

$$$$

            

 13 14  0  0  0  0            999 V2000
    0.0000    0.0000    0.0000 O   0  0  0  0  0  0  0  0  0  0  0  0
    0.7145   -0.4125    0.0000 C   0  0  0  0  0  0  0  0  0  0  0  0
    0.7145   -1.2375    0.0000 C   0  0  0  0  0  0  0  0  0  0  0  0
    1.3819   -1.7224    0.0000 N   0  0  0  0  0  0  0  0  0  0  0  0
    1.1270   -2.5070    0.0000 C   0  0  0  0  0  0  0  0  0  0  0  0
    0.3020   -2.5070    0.0000 C   0  0  0  0  0  0  0  0  0  0  0  0
    0.0470   -1.7224    0.0000 S   0  0  0  0  0  0  0  0  0  0  0  0
    1.6119   -3.1745    0.0000 C   0  0  0  0  0  0  0  0  0  0  0  0
    2.4324   -3.0882    0.0000 C   0  0  0  0  0  0  0  0  0  0  0  0
    2.9173   -3.7557    0.0000 C   0  0  0  0  0  0  0  0  0  0  0  0
    2.5817   -4.5094    0.0000 C   0  0  0  0  0  0  0  0  0  0  0  0
    1.7613   -4.5956    0.0000 C   0  0  0  0  0  0  0  0  0  0  0  0
    1.2763   -3.9282    0.0000 N   0  0  0  0  0  0  0  0  0  0  0  0
  1  2  1  0  0  0  0
  2  3  1  0  0  0  0
  3  4  2  0  0  0  0
  4  5  1  0  0  0  0
  5  6  2  0  0  0  0
  6  7  1  0  0  0  0
  3  7  1  0  0  0  0
  5  8  1  0  0  0  0
  8  9  2  0  0  0  0
  9 10  1  0  0  0  0
 10 11  2  0  0  0  0
 11 12  1  0  0  0  0
 12 13  2  0  0  0  0
  8 13  1  0  0  0  0
M  END
>  <Catalog ID>
Z1037609796

>  <PlateID>
1198308-R-SPFL-19

>  <Well>
G03

>  <MW (desalted)>
192.238

>  <ClogP>
0.346

>  <HBD>
1

>  <TPSA>
46.010

>  <RotBonds>
2

$$$$

            

 11 12  0  0  0  0            999 V2000
    0.0000   -1.6500    0.0000 C   0  0  0  0  0  0  0  0  0  0  0  0
    0.7145   -1.2375    0.0000 C   0  0  0  0  0  0  0  0  0  0  0  0
    0.7145   -0.4125    0.0000 C   0  0  0  0  0  0  0  0  0  0  0  0
    1.4289    0.0000    0.0000 N   0  0  0  0  0  0  0  0  0  0  0  0
    2.1434   -0.4125    0.0000 C   0  0  0  0  0  0  0  0  0  0  0  0
    2.8579    0.0000    0.0000 C   0  0  0  0  0  0  0  0  0  0  0  0
    3.5724   -0.4125    0.0000 C   0  0  0  0  0  0  0  0  0  0  0  0
    3.5724   -1.2375    0.0000 C   0  0  0  0  0  0  0  0  0  0  0  0
    2.8579   -1.6500    0.0000 C   0  0  0  0  0  0  0  0  0  0  0  0
    2.1434   -1.2375    0.0000 C   0  0  0  0  0  0  0  0  0  0  0  0
    1.4289   -1.6500    0.0000 N   0  0  0  0  0  0  0  0  0  0  0  0
  1  2  1  0  0  0  0
  2  3  1  0  0  0  0
  3  4  2  0  0  0  0
  4  5  1  0  0  0  0
  5  6  2  0  0  0  0
  6  7  1  0  0  0  0
  7  8  2  0  0  0  0
  8  9  1  0  0  0  0
  9 10  2  0  0  0  0
  5 10  1  0  0  0  0
 10 11  1  0  0  0  0
  2 11  2  0  0  0  0
M  END
>  <Catalog ID>
Z1255423472

>  <PlateID>
1198308-R-SPFL-19

>  <Well>
G04

>  <MW (desalted)>
144.173

>  <ClogP>
1.781

>  <HBD>
0

>  <TPSA>
25.780

>  <RotBonds>
0

$$$$

            

 15 16  0  0  0  0            999 V2000
    0.0000    0.0000    0.0000 C   0  0  0  0  0  0  0  0  0  0  0  0
    0.7145   -0.4125    0.0000 C   0  0  0  0  0  0  0  0  0  0  0  0
    1.4289    0.0000    0.0000 O   0  0  0  0  0  0  0  0  0  0  0  0
    0.7145   -1.2375    0.0000 N   0  0  0  0  0  0  0  0  0  0  0  0
    1.4289   -1.6500    0.0000 C   0  0  0  0  0  0  0  0  0  0  0  0
    1.4289   -2.4750    0.0000 C   0  0  0  0  0  0  0  0  0  0  0  0
    0.7145   -2.8875    0.0000 C   0  0  0  0  0  0  0  0  0  0  0  0
    0.0000   -2.4750    0.0000 C   0  0  0  0  0  0  0  0  0  0  0  0
    0.0000   -1.6500    0.0000 C   0  0  0  0  0  0  0  0  0  0  0  0
    0.7145   -3.7125    0.0000 C   0  0  0  0  0  0  0  0  0  0  0  0
    1.4289   -4.1250    0.0000 C   0  0  0  0  0  0  0  0  0  0  0  0
    1.4289   -4.9500    0.0000 C   0  0  0  0  0  0  0  0  0  0  0  0
    0.7145   -5.3625    0.0000 C   0  0  0  0  0  0  0  0  0  0  0  0
    0.0000   -4.9500    0.0000 C   0  0  0  0  0  0  0  0  0  0  0  0
    0.0000   -4.1250    0.0000 C   0  0  0  0  0  0  0  0  0  0  0  0
  1  2  1  0  0  0  0
  2  3  2  0  0  0  0
  2  4  1  0  0  0  0
  4  5  1  0  0  0  0
  5  6  1  0  0  0  0
  6  7  1  0  0  0  0
  7  8  1  0  0  0  0
  8  9  1  0  0  0  0
  4  9  1  0  0  0  0
  7 10  1  0  0  0  0
 10 11  2  0  0  0  0
 11 12  1  0  0  0  0
 12 13  2  0  0  0  0
 13 14  1  0  0  0  0
 14 15  2  0  0  0  0
 10 15  1  0  0  0  0
M  END
>  <Catalog ID>
Z284779336

>  <PlateID>
1198308-R-SPFL-19

>  <Well>
G05

>  <MW (desalted)>
203.280

>  <ClogP>
1.389

>  <HBD>
0

>  <TPSA>
20.310

>  <RotBonds>
1

$$$$

            

 15 16  0  0  0  0            999 V2000
    0.7324   -0.2349    0.0000 C   0  0  0  0  0  0  0  0  0  0  0  0
    0.0179   -0.6474    0.0000 C   0  0  0  0  0  0  0  0  0  0  0  0
    0.0179   -1.4724    0.0000 C   0  0  0  0  0  0  0  0  0  0  0  0
    0.6854   -1.9573    0.0000 N   0  0  0  0  0  0  0  0  0  0  0  0
    0.4304   -2.7419    0.0000 O   0  0  0  0  0  0  0  0  0  0  0  0
   -0.3946   -2.7419    0.0000 C   0  0  0  0  0  0  0  0  0  0  0  0
   -0.8795   -3.4094    0.0000 C   0  0  0  0  0  0  0  0  0  0  0  0
   -0.6495   -1.9573    0.0000 C   0  0  0  0  0  0  0  0  0  0  0  0
   -1.4341   -1.7024    0.0000 C   0  0  0  0  0  0  0  0  0  0  0  0
   -2.0472   -2.2544    0.0000 N   0  0  0  0  0  0  0  0  0  0  0  0
   -1.9610   -3.0749    0.0000 C   0  0  0  0  0  0  0  0  0  0  0  0
   -2.7147   -3.4105    0.0000 C   0  0  0  0  0  0  0  0  0  0  0  0
   -3.2667   -2.7974    0.0000 C   0  0  0  0  0  0  0  0  0  0  0  0
   -4.0872   -2.8836    0.0000 C   0  0  0  0  0  0  0  0  0  0  0  0
   -2.8542   -2.0829    0.0000 N   0  0  0  0  0  0  0  0  0  0  0  0
  1  2  1  0  0  0  0
  2  3  1  0  0  0  0
  3  4  2  0  0  0  0
  4  5  1  0  0  0  0
  5  6  1  0  0  0  0
  6  7  1  0  0  0  0
  6  8  2  0  0  0  0
  3  8  1  0  0  0  0
  8  9  1  0  0  0  0
  9 10  1  0  0  0  0
 10 11  1  0  0  0  0
 11 12  2  0  0  0  0
 12 13  1  0  0  0  0
 13 14  1  0  0  0  0
 13 15  2  0  0  0  0
 10 15  1  0  0  0  0
M  END
>  <Catalog ID>
Z1516316257

>  <PlateID>
1198308-R-SPFL-19

>  <Well>
G06

>  <MW (desalted)>
205.256

>  <ClogP>
1.430

>  <HBD>
0

>  <TPSA>
43.850

>  <RotBonds>
3

$$$$

            

 13 14  0  0  0  0            999 V2000
    0.7145   -0.4125    0.0000 O   0  0  0  0  0  0  0  0  0  0  0  0
    0.7145   -1.2375    0.0000 C   0  0  0  0  0  0  0  0  0  0  0  0
    1.4289   -1.6500    0.0000 N   0  0  0  0  0  0  0  0  0  0  0  0
    1.4289   -2.4750    0.0000 C   0  0  0  0  0  0  0  0  0  0  0  0
    0.7145   -2.8875    0.0000 N   0  0  0  0  0  0  0  0  0  0  0  0
    0.0000   -2.4750    0.0000 C   0  0  0  0  0  0  0  0  0  0  0  0
    0.0000   -1.6500    0.0000 C   0  0  0  0  0  0  0  0  0  0  0  0
   -0.7145   -1.2375    0.0000 C   0  0  0  0  0  0  0  0  0  0  0  0
   -1.4289   -1.6500    0.0000 C   0  0  0  0  0  0  0  0  0  0  0  0
   -2.1434   -1.2375    0.0000 C   0  0  0  0  0  0  0  0  0  0  0  0
   -2.1434   -0.4125    0.0000 C   0  0  0  0  0  0  0  0  0  0  0  0
   -1.4289    0.0000    0.0000 C   0  0  0  0  0  0  0  0  0  0  0  0
   -0.7145   -0.4125    0.0000 C   0  0  0  0  0  0  0  0  0  0  0  0
  1  2  1  0  0  0  0
  2  3  2  0  0  0  0
  3  4  1  0  0  0  0
  4  5  2  0  0  0  0
  5  6  1  0  0  0  0
  6  7  2  0  0  0  0
  2  7  1  0  0  0  0
  7  8  1  0  0  0  0
  8  9  2  0  0  0  0
  9 10  1  0  0  0  0
 10 11  2  0  0  0  0
 11 12  1  0  0  0  0
 12 13  2  0  0  0  0
  8 13  1  0  0  0  0
M  END
>  <Catalog ID>
Z1198155304

>  <PlateID>
1198308-R-SPFL-19

>  <Well>
G07

>  <MW (desalted)>
172.183

>  <ClogP>
1.897

>  <HBD>
1

>  <TPSA>
46.010

>  <RotBonds>
1

$$$$

            

 11 11  0  0  0  0            999 V2000
    0.0000    2.4750    0.0000 C   0  0  0  0  0  0  0  0  0  0  0  0
    0.7145    2.0625    0.0000 O   0  0  0  0  0  0  0  0  0  0  0  0
    0.7145    1.2375    0.0000 C   0  0  0  0  0  0  0  0  0  0  0  0
    1.4289    0.8250    0.0000 C   0  0  0  0  0  0  0  0  0  0  0  0
    1.4289   -0.0000    0.0000 C   0  0  0  0  0  0  0  0  0  0  0  0
    0.7145   -0.4125    0.0000 C   0  0  0  0  0  0  0  0  0  0  0  0
    0.7145   -1.2375    0.0000 C   0  0  0  0  0  0  0  0  0  0  0  0
    0.0000    0.0000    0.0000 C   0  0  0  0  0  0  0  0  0  0  0  0
    0.0000    0.8250    0.0000 C   0  0  0  0  0  0  0  0  0  0  0  0
   -0.7145    1.2375    0.0000 C   0  0  0  0  0  0  0  0  0  0  0  0
   -0.7145    2.0625    0.0000 N   0  0  0  0  0  0  0  0  0  0  0  0
  1  2  1  0  0  0  0
  2  3  1  0  0  0  0
  3  4  2  0  0  0  0
  4  5  1  0  0  0  0
  5  6  2  0  0  0  0
  6  7  1  0  0  0  0
  6  8  1  0  0  0  0
  8  9  2  0  0  0  0
  3  9  1  0  0  0  0
  9 10  1  0  0  0  0
 10 11  1  0  0  0  0
M  END
>  <Catalog ID>
Z335442488

>  <PlateID>
1198308-R-SPFL-19

>  <Well>
G08

>  <MW (desalted)>
151.206

>  <ClogP>
1.512

>  <HBD>
1

>  <TPSA>
35.250

>  <RotBonds>
2

$$$$

            

 10 11  0  0  0  0            999 V2000
    3.2789    2.0625    0.0000 O   0  0  0  0  0  0  0  0  0  0  0  0
    3.2789    1.2375    0.0000 C   0  0  0  0  0  0  0  0  0  0  0  0
    3.9934    0.8250    0.0000 N   0  0  0  0  0  0  0  0  0  0  0  0
    3.9934    0.0000    0.0000 C   0  0  0  0  0  0  0  0  0  0  0  0
    3.2789   -0.4125    0.0000 N   0  0  0  0  0  0  0  0  0  0  0  0
    2.5645    0.0000    0.0000 C   0  0  0  0  0  0  0  0  0  0  0  0
    1.7798   -0.2549    0.0000 S   0  0  0  0  0  0  0  0  0  0  0  0
    1.2949    0.4125    0.0000 C   0  0  0  0  0  0  0  0  0  0  0  0
    1.7798    1.0799    0.0000 C   0  0  0  0  0  0  0  0  0  0  0  0
    2.5645    0.8250    0.0000 C   0  0  0  0  0  0  0  0  0  0  0  0
  1  2  2  0  0  0  0
  2  3  1  0  0  0  0
  3  4  1  0  0  0  0
  4  5  2  0  0  0  0
  5  6  1  0  0  0  0
  6  7  1  0  0  0  0
  7  8  1  0  0  0  0
  8  9  2  0  0  0  0
  9 10  1  0  0  0  0
  2 10  1  0  0  0  0
  6 10  2  0  0  0  0
M  END
>  <Catalog ID>
Z56761824

>  <PlateID>
1198308-R-SPFL-19

>  <Well>
H02

>  <MW (desalted)>
152.174

>  <ClogP>
0.124

>  <HBD>
1

>  <TPSA>
41.460

>  <RotBonds>
0

$$$$

            

 13 14  0  0  0  0            999 V2000
    0.7145   -0.4125    0.0000 N   0  0  0  0  0  0  0  0  0  0  0  0
    0.7145   -1.2375    0.0000 C   0  0  0  0  0  0  0  0  0  0  0  0
    1.4289   -1.6500    0.0000 N   0  0  0  0  0  0  0  0  0  0  0  0
    1.4289   -2.4750    0.0000 C   0  0  0  0  0  0  0  0  0  0  0  0
    0.7145   -2.8875    0.0000 C   0  0  0  0  0  0  0  0  0  0  0  0
    0.0000   -2.4750    0.0000 C   0  0  0  0  0  0  0  0  0  0  0  0
    0.0000   -1.6500    0.0000 N   0  0  0  0  0  0  0  0  0  0  0  0
    0.7145   -3.7125    0.0000 C   0  0  0  0  0  0  0  0  0  0  0  0
    1.4289   -4.1250    0.0000 C   0  0  0  0  0  0  0  0  0  0  0  0
    1.4289   -4.9500    0.0000 C   0  0  0  0  0  0  0  0  0  0  0  0
    0.7145   -5.3625    0.0000 C   0  0  0  0  0  0  0  0  0  0  0  0
    0.0000   -4.9500    0.0000 C   0  0  0  0  0  0  0  0  0  0  0  0
    0.0000   -4.1250    0.0000 C   0  0  0  0  0  0  0  0  0  0  0  0
  1  2  1  0  0  0  0
  2  3  2  0  0  0  0
  3  4  1  0  0  0  0
  4  5  2  0  0  0  0
  5  6  1  0  0  0  0
  6  7  2  0  0  0  0
  2  7  1  0  0  0  0
  5  8  1  0  0  0  0
  8  9  2  0  0  0  0
  9 10  1  0  0  0  0
 10 11  2  0  0  0  0
 11 12  1  0  0  0  0
 12 13  2  0  0  0  0
  8 13  1  0  0  0  0
M  END
>  <Catalog ID>
Z1013761006

>  <PlateID>
1198308-R-SPFL-19

>  <Well>
H03

>  <MW (desalted)>
171.199

>  <ClogP>
1.564

>  <HBD>
1

>  <TPSA>
51.800

>  <RotBonds>
1

$$$$

            

 11 11  0  0  0  0            999 V2000
    0.0000    2.4750    0.0000 C   0  0  0  0  0  0  0  0  0  0  0  0
    0.7145    2.0625    0.0000 C   0  0  0  0  0  0  0  0  0  0  0  0
    1.4289    2.4750    0.0000 N   0  0  0  0  0  0  0  0  0  0  0  0
    0.7145    1.2375    0.0000 C   0  0  0  0  0  0  0  0  0  0  0  0
    1.4289    0.8250    0.0000 C   0  0  0  0  0  0  0  0  0  0  0  0
    1.4289   -0.0000    0.0000 C   0  0  0  0  0  0  0  0  0  0  0  0
    0.7145   -0.4125    0.0000 C   0  0  0  0  0  0  0  0  0  0  0  0
    0.7145   -1.2375    0.0000 F   0  0  0  0  0  0  0  0  0  0  0  0
    0.0000    0.0000    0.0000 C   0  0  0  0  0  0  0  0  0  0  0  0
    0.0000    0.8250    0.0000 C   0  0  0  0  0  0  0  0  0  0  0  0
   -0.7145    1.2375    0.0000 F   0  0  0  0  0  0  0  0  0  0  0  0
  1  2  1  0  0  0  0
  2  3  1  0  0  0  0
  2  4  1  0  0  0  0
  4  5  2  0  0  0  0
  5  6  1  0  0  0  0
  6  7  2  0  0  0  0
  7  8  1  0  0  0  0
  7  9  1  0  0  0  0
  9 10  2  0  0  0  0
  4 10  1  0  0  0  0
 10 11  1  0  0  0  0
M  END
>  <Catalog ID>
Z56347428

>  <PlateID>
1198308-R-SPFL-19

>  <Well>
H04

>  <MW (desalted)>
157.161

>  <ClogP>
1.689

>  <HBD>
1

>  <TPSA>
26.020

>  <RotBonds>
1

$$$$

            

 15 16  0  0  0  0            999 V2000
    1.5806   -0.8304    0.0000 C   0  0  0  0  0  0  0  0  0  0  0  0
    1.5806   -1.6554    0.0000 C   0  0  0  0  0  0  0  0  0  0  0  0
    2.2481   -2.1403    0.0000 N   0  0  0  0  0  0  0  0  0  0  0  0
    1.9931   -2.9249    0.0000 C   0  0  0  0  0  0  0  0  0  0  0  0
    1.1681   -2.9249    0.0000 S   0  0  0  0  0  0  0  0  0  0  0  0
    0.9132   -2.1403    0.0000 C   0  0  0  0  0  0  0  0  0  0  0  0
    0.1286   -1.8854    0.0000 C   0  0  0  0  0  0  0  0  0  0  0  0
   -0.4845   -2.4374    0.0000 O   0  0  0  0  0  0  0  0  0  0  0  0
   -0.0429   -1.0784    0.0000 N   0  0  0  0  0  0  0  0  0  0  0  0
   -0.8444   -0.8828    0.0000 C   0  0  0  0  0  0  0  0  0  0  0  0
   -1.1912   -0.1342    0.0000 C   0  0  0  0  0  0  0  0  0  0  0  0
   -0.8222    0.6036    0.0000 C   0  0  0  0  0  0  0  0  0  0  0  0
   -0.0152    0.7752    0.0000 C   0  0  0  0  0  0  0  0  0  0  0  0
    0.6220    0.2512    0.0000 C   0  0  0  0  0  0  0  0  0  0  0  0
    0.6097   -0.5737    0.0000 C   0  0  0  0  0  0  0  0  0  0  0  0
  1  2  1  0  0  0  0
  2  3  1  0  0  0  0
  3  4  2  0  0  0  0
  4  5  1  0  0  0  0
  5  6  1  0  0  0  0
  2  6  2  0  0  0  0
  6  7  1  0  0  0  0
  7  8  2  0  0  0  0
  7  9  1  0  0  0  0
  9 10  1  0  0  0  0
 10 11  1  0  0  0  0
 11 12  1  0  0  0  0
 12 13  1  0  0  0  0
 13 14  1  0  0  0  0
 14 15  1  0  0  0  0
  9 15  1  0  0  0  0
M  END
>  <Catalog ID>
Z420010182

>  <PlateID>
1198308-R-SPFL-19

>  <Well>
H05

>  <MW (desalted)>
224.323

>  <ClogP>
1.586

>  <HBD>
0

>  <TPSA>
33.200

>  <RotBonds>
1

$$$$

            

 15 16  0  0  1  0            999 V2000
    2.7512   -0.0616    0.0000 O   0  0  0  0  0  0  0  0  0  0  0  0
    2.0367   -0.4741    0.0000 C   0  0  0  0  0  0  0  0  0  0  0  0
    2.0367   -1.2991    0.0000 C   0  0  2  0  0  0  0  0  0  0  0  0
    1.3693   -1.7840    0.0000 C   0  0  0  0  0  0  0  0  0  0  0  0
    1.6242   -2.5687    0.0000 C   0  0  0  0  0  0  0  0  0  0  0  0
    2.4492   -2.5687    0.0000 C   0  0  0  0  0  0  0  0  0  0  0  0
    2.7041   -1.7840    0.0000 N   0  0  0  0  0  0  0  0  0  0  0  0
    3.4888   -1.5291    0.0000 C   0  0  0  0  0  0  0  0  0  0  0  0
    4.1019   -2.0811    0.0000 C   0  0  0  0  0  0  0  0  0  0  0  0
    4.8865   -1.8262    0.0000 C   0  0  0  0  0  0  0  0  0  0  0  0
    5.4996   -2.3782    0.0000 C   0  0  0  0  0  0  0  0  0  0  0  0
    5.3281   -3.1852    0.0000 C   0  0  0  0  0  0  0  0  0  0  0  0
    4.5434   -3.4401    0.0000 C   0  0  0  0  0  0  0  0  0  0  0  0
    3.9303   -2.8881    0.0000 C   0  0  0  0  0  0  0  0  0  0  0  0
    3.1457   -3.1430    0.0000 F   0  0  0  0  0  0  0  0  0  0  0  0
  1  2  1  0  0  0  0
  3  2  1  1  0  0  0
  3  4  1  0  0  0  0
  4  5  1  0  0  0  0
  5  6  1  0  0  0  0
  6  7  1  0  0  0  0
  3  7  1  0  0  0  0
  7  8  1  0  0  0  0
  8  9  1  0  0  0  0
  9 10  2  0  0  0  0
 10 11  1  0  0  0  0
 11 12  2  0  0  0  0
 12 13  1  0  0  0  0
 13 14  2  0  0  0  0
  9 14  1  0  0  0  0
 14 15  1  0  0  0  0
M  END
>  <Catalog ID>
Z1130245925

>  <PlateID>
1198308-R-SPFL-19

>  <Well>
H06

>  <MW (desalted)>
209.260

>  <ClogP>
2.118

>  <HBD>
1

>  <TPSA>
23.470

>  <RotBonds>
3

$$$$

            

 11 11  0  0  0  0            999 V2000
    0.7145    2.0625    0.0000 O   0  0  0  0  0  0  0  0  0  0  0  0
    0.7145    1.2375    0.0000 C   0  0  0  0  0  0  0  0  0  0  0  0
    1.4289    0.8250    0.0000 N   0  0  0  0  0  0  0  0  0  0  0  0
    1.4289   -0.0000    0.0000 C   0  0  0  0  0  0  0  0  0  0  0  0
    0.7145   -0.4125    0.0000 C   0  0  0  0  0  0  0  0  0  0  0  0
    0.0000    0.0000    0.0000 C   0  0  0  0  0  0  0  0  0  0  0  0
    0.0000    0.8250    0.0000 N   0  0  0  0  0  0  0  0  0  0  0  0
   -0.7145   -0.4125    0.0000 C   0  0  0  0  0  0  0  0  0  0  0  0
   -1.4289   -0.8250    0.0000 F   0  0  0  0  0  0  0  0  0  0  0  0
   -1.1270    0.3020    0.0000 F   0  0  0  0  0  0  0  0  0  0  0  0
   -0.3020   -1.1270    0.0000 F   0  0  0  0  0  0  0  0  0  0  0  0
  1  2  1  0  0  0  0
  2  3  2  0  0  0  0
  3  4  1  0  0  0  0
  4  5  2  0  0  0  0
  5  6  1  0  0  0  0
  6  7  2  0  0  0  0
  2  7  1  0  0  0  0
  6  8  1  0  0  0  0
  8  9  1  0  0  0  0
  8 10  1  0  0  0  0
  8 11  1  0  0  0  0
M  END
>  <Catalog ID>
Z275380834

>  <PlateID>
1198308-R-SPFL-19

>  <Well>
H07

>  <MW (desalted)>
164.085

>  <ClogP>
1.276

>  <HBD>
1

>  <TPSA>
46.010

>  <RotBonds>
1

$$$$

            

 15 15  0  0  0  0            999 V2000
    0.0000    0.0000    0.0000 Cl  0  0  0  0  0  0  0  0  0  0  0  0
    4.4839    2.9415    0.0000 C   0  0  0  0  0  0  0  0  0  0  0  0
    4.4839    2.1165    0.0000 C   0  0  0  0  0  0  0  0  0  0  0  0
    5.1513    1.6316    0.0000 C   0  0  0  0  0  0  0  0  0  0  0  0
    4.8964    0.8470    0.0000 S   0  0  0  0  0  0  0  0  0  0  0  0
    4.0714    0.8470    0.0000 C   0  0  0  0  0  0  0  0  0  0  0  0
    3.5864    0.1796    0.0000 C   0  0  0  0  0  0  0  0  0  0  0  0
    3.9220   -0.5741    0.0000 C   0  0  0  0  0  0  0  0  0  0  0  0
    3.4371   -1.2416    0.0000 N   0  0  0  0  0  0  0  0  0  0  0  0
    3.6920   -2.0262    0.0000 C   0  0  0  0  0  0  0  0  0  0  0  0
    3.0246   -2.5111    0.0000 C   0  0  0  0  0  0  0  0  0  0  0  0
    2.3571   -2.0262    0.0000 C   0  0  0  0  0  0  0  0  0  0  0  0
    2.6121   -1.2416    0.0000 C   0  0  0  0  0  0  0  0  0  0  0  0
    2.1272   -0.5741    0.0000 O   0  0  0  0  0  0  0  0  0  0  0  0
    3.8164    1.6316    0.0000 N   0  0  0  0  0  0  0  0  0  0  0  0
  2  3  1  0  0  0  0
  3  4  2  0  0  0  0
  4  5  1  0  0  0  0
  5  6  1  0  0  0  0
  6  7  1  0  0  0  0
  7  8  1  0  0  0  0
  8  9  1  0  0  0  0
  9 10  1  0  0  0  0
 10 11  1  0  0  0  0
 11 12  1  0  0  0  0
 12 13  1  0  0  0  0
  9 13  1  0  0  0  0
 13 14  2  0  0  0  0
  6 15  2  0  0  0  0
  3 15  1  0  0  0  0
M  END
>  <Catalog ID>
Z2379123271

>  <PlateID>
1198308-R-SPFL-19

>  <Well>
H08

>  <MW (desalted)>
210.296

>  <ClogP>
0.543

>  <HBD>
0

>  <TPSA>
33.200

>  <RotBonds>
3

$$$$
